_rank18
     RDKit          3D

 16 16  0  0  0  0  0  0  0  0999 V2000
   25.6569    0.9672  -13.3082 C   0  0  0  0  0  0  0  0  0  0  0  0
   25.7153   -0.0572  -11.8292 S   0  0  1  0  0  6  0  0  0  0  0  0
   26.8933   -0.9203  -11.9892 O   0  0  0  0  0  0  0  0  0  0  0  0
   26.0154    0.9000  -10.6860 O   0  0  0  0  0  0  0  0  0  0  0  0
   24.1991   -0.7781  -11.5525 C   0  0  0  0  0  0  0  0  0  0  0  0
   23.6588   -1.5603  -12.5818 C   0  0  0  0  0  0  0  0  0  0  0  0
   22.4434   -2.1914  -12.4960 C   0  0  0  0  0  0  0  0  0  0  0  0
   21.7021   -2.0608  -11.3473 C   0  0  0  0  0  0  0  0  0  0  0  0
   20.4232   -2.6838  -11.1702 C   0  0  0  0  0  0  0  0  0  0  0  0
   19.3956   -3.1856  -11.0094 N   0  0  0  0  0  0  0  0  0  0  0  0
   22.2203   -1.3042  -10.3462 C   0  0  0  0  0  0  0  0  0  0  0  0
   23.4596   -0.6499  -10.4100 C   0  0  0  0  0  0  0  0  0  0  0  0
   24.0576    0.2853   -9.0919 S   0  0  1  0  0  6  0  0  0  0  0  0
   24.3157    1.9858   -9.4130 C   0  0  0  0  0  0  0  0  0  0  0  0
   23.2710    0.0474   -7.8158 O   0  0  0  0  0  0  0  0  0  0  0  0
   25.4298   -0.2974   -8.7445 O   0  0  0  0  0  0  0  0  0  0  0  0
  1  2  1  1
  2  3  2  0
  2  4  2  0
  2  5  1  1
  5  6  2  0
  6  7  1  0
  7  8  2  0
  8  9  1  0
  9 10  3  0
  8 11  1  0
 11 12  2  0
 13 12  1  6
 14 13  1  6
 13 15  2  0
 13 16  2  0
 12  5  1  0
M  END
$$$$
