_rank12
     RDKit          3D

 16 16  0  0  0  0  0  0  0  0999 V2000
   26.8750    0.2072  -13.5932 C   0  0  0  0  0  0  0  0  0  0  0  0
   26.5296    0.8921  -11.9647 S   0  0  1  0  0  6  0  0  0  0  0  0
   27.8262    0.9561  -11.2768 O   0  0  0  0  0  0  0  0  0  0  0  0
   26.0861    2.3253  -12.2148 O   0  0  0  0  0  0  0  0  0  0  0  0
   25.2495    0.0459  -11.2298 C   0  0  0  0  0  0  0  0  0  0  0  0
   24.0343   -0.0169  -11.9244 C   0  0  0  0  0  0  0  0  0  0  0  0
   22.9197   -0.6583  -11.4456 C   0  0  0  0  0  0  0  0  0  0  0  0
   22.9794   -1.2779  -10.2214 C   0  0  0  0  0  0  0  0  0  0  0  0
   21.8654   -1.9707   -9.6436 C   0  0  0  0  0  0  0  0  0  0  0  0
   20.9584   -2.5132   -9.1781 N   0  0  0  0  0  0  0  0  0  0  0  0
   24.1544   -1.2208   -9.5435 C   0  0  0  0  0  0  0  0  0  0  0  0
   25.3066   -0.5719  -10.0117 C   0  0  0  0  0  0  0  0  0  0  0  0
   26.7677   -0.5516   -9.0982 S   0  0  1  0  0  6  0  0  0  0  0  0
   28.2027   -1.1012   -9.9348 C   0  0  0  0  0  0  0  0  0  0  0  0
   26.9808    0.7714   -8.3856 O   0  0  0  0  0  0  0  0  0  0  0  0
   26.5545   -1.5210   -7.9328 O   0  0  0  0  0  0  0  0  0  0  0  0
  1  2  1  1
  2  3  2  0
  2  4  2  0
  2  5  1  1
  5  6  2  0
  6  7  1  0
  7  8  2  0
  8  9  1  0
  9 10  3  0
  8 11  1  0
 11 12  2  0
 13 12  1  6
 14 13  1  6
 13 15  2  0
 13 16  2  0
 12  5  1  0
M  END
$$$$
