_rank14
     RDKit          3D

 16 16  0  0  0  0  0  0  0  0999 V2000
   27.0430   -1.8058  -10.9958 C   0  0  0  0  0  0  0  0  0  0  0  0
   26.2693   -1.3150   -9.4464 S   0  0  1  0  0  6  0  0  0  0  0  0
   26.4213   -2.4644   -8.5441 O   0  0  0  0  0  0  0  0  0  0  0  0
   27.1412   -0.1971   -8.8955 O   0  0  0  0  0  0  0  0  0  0  0  0
   24.7106   -0.6977   -9.7367 C   0  0  0  0  0  0  0  0  0  0  0  0
   23.6328   -1.3530   -9.1265 C   0  0  0  0  0  0  0  0  0  0  0  0
   22.3252   -0.9673   -9.2814 C   0  0  0  0  0  0  0  0  0  0  0  0
   22.0376    0.1172  -10.0733 C   0  0  0  0  0  0  0  0  0  0  0  0
   20.7021    0.5903  -10.2917 C   0  0  0  0  0  0  0  0  0  0  0  0
   19.6287    0.9840  -10.4545 N   0  0  0  0  0  0  0  0  0  0  0  0
   23.0777    0.7566  -10.6672 C   0  0  0  0  0  0  0  0  0  0  0  0
   24.4219    0.3817  -10.5241 C   0  0  0  0  0  0  0  0  0  0  0  0
   25.6909    1.2507  -11.3013 S   0  0  1  0  0  6  0  0  0  0  0  0
   26.6892    0.3281  -12.4029 C   0  0  0  0  0  0  0  0  0  0  0  0
   25.2057    2.5540  -11.9092 O   0  0  0  0  0  0  0  0  0  0  0  0
   26.6203    1.7353  -10.1857 O   0  0  0  0  0  0  0  0  0  0  0  0
  1  2  1  1
  2  3  2  0
  2  4  2  0
  2  5  1  6
  5  6  2  0
  6  7  1  0
  7  8  2  0
  8  9  1  0
  9 10  3  0
  8 11  1  0
 11 12  2  0
 13 12  1  1
 14 13  1  6
 13 15  2  0
 13 16  2  0
 12  5  1  0
M  END
$$$$
