_rank7
     RDKit          3D

 16 16  0  0  0  0  0  0  0  0999 V2000
   28.1149   -1.4051   -9.8679 C   0  0  0  0  0  0  0  0  0  0  0  0
   26.9353   -0.2852   -9.0966 S   0  0  1  0  0  6  0  0  0  0  0  0
   27.0979   -0.4719   -7.6484 O   0  0  0  0  0  0  0  0  0  0  0  0
   27.4325    1.1142   -9.4246 O   0  0  0  0  0  0  0  0  0  0  0  0
   25.3926   -0.4907   -9.7842 C   0  0  0  0  0  0  0  0  0  0  0  0
   24.3934   -1.0458   -8.9738 C   0  0  0  0  0  0  0  0  0  0  0  0
   23.1100   -1.2740   -9.4021 C   0  0  0  0  0  0  0  0  0  0  0  0
   22.7675   -0.9472  -10.6913 C   0  0  0  0  0  0  0  0  0  0  0  0
   21.4521   -1.1505  -11.2235 C   0  0  0  0  0  0  0  0  0  0  0  0
   20.3976   -1.3064  -11.6679 N   0  0  0  0  0  0  0  0  0  0  0  0
   23.7314   -0.4087  -11.4815 C   0  0  0  0  0  0  0  0  0  0  0  0
   25.0493   -0.1659  -11.0668 C   0  0  0  0  0  0  0  0  0  0  0  0
   26.2163    0.5325  -12.1252 S   0  0  1  0  0  6  0  0  0  0  0  0
   25.6027    1.1499  -13.6430 C   0  0  0  0  0  0  0  0  0  0  0  0
   27.1142    1.5277  -11.4131 O   0  0  0  0  0  0  0  0  0  0  0  0
   27.1921   -0.5911  -12.4838 O   0  0  0  0  0  0  0  0  0  0  0  0
  1  2  1  1
  2  3  2  0
  2  4  2  0
  2  5  1  6
  5  6  2  0
  6  7  1  0
  7  8  2  0
  8  9  1  0
  9 10  3  0
  8 11  1  0
 11 12  2  0
 13 12  1  1
 14 13  1  6
 13 15  2  0
 13 16  2  0
 12  5  1  0
M  END
$$$$
