_rank20
     RDKit          3D

 16 16  0  0  0  0  0  0  0  0999 V2000
   22.0074    0.8078  -10.8087 C   0  0  0  0  0  0  0  0  0  0  0  0
   22.8778   -0.6143  -11.4874 S   0  0  1  0  0  6  0  0  0  0  0  0
   22.0004   -1.7684  -11.2498 O   0  0  0  0  0  0  0  0  0  0  0  0
   22.9162   -0.3850  -12.9905 O   0  0  0  0  0  0  0  0  0  0  0  0
   24.4748   -0.6609  -10.9022 C   0  0  0  0  0  0  0  0  0  0  0  0
   25.4846   -1.0093  -11.8090 C   0  0  0  0  0  0  0  0  0  0  0  0
   26.8116   -1.0935  -11.4701 C   0  0  0  0  0  0  0  0  0  0  0  0
   27.1895   -0.8253  -10.1774 C   0  0  0  0  0  0  0  0  0  0  0  0
   28.5515   -0.8887   -9.7346 C   0  0  0  0  0  0  0  0  0  0  0  0
   29.6542   -0.9339   -9.3944 N   0  0  0  0  0  0  0  0  0  0  0  0
   26.2156   -0.4870   -9.2940 C   0  0  0  0  0  0  0  0  0  0  0  0
   24.8535   -0.3942   -9.6162 C   0  0  0  0  0  0  0  0  0  0  0  0
   23.6746    0.0533   -8.4415 S   0  0  1  0  0  6  0  0  0  0  0  0
   22.9176    1.6140   -8.6709 C   0  0  0  0  0  0  0  0  0  0  0  0
   22.6646   -1.0518   -8.1920 O   0  0  0  0  0  0  0  0  0  0  0  0
   24.4144    0.1294   -7.1036 O   0  0  0  0  0  0  0  0  0  0  0  0
  1  2  1  1
  2  3  2  0
  2  4  2  0
  2  5  1  1
  5  6  2  0
  6  7  1  0
  7  8  2  0
  8  9  1  0
  9 10  3  0
  8 11  1  0
 11 12  2  0
 13 12  1  6
 14 13  1  6
 13 15  2  0
 13 16  2  0
 12  5  1  0
M  END
$$$$
