_rank8
     RDKit          3D

 16 16  0  0  0  0  0  0  0  0999 V2000
   26.3225    1.4279  -13.3409 C   0  0  0  0  0  0  0  0  0  0  0  0
   26.7360    0.6461  -11.7730 S   0  0  1  0  0  6  0  0  0  0  0  0
   27.9134   -0.1899  -12.0435 O   0  0  0  0  0  0  0  0  0  0  0  0
   27.1915    1.7778  -10.8647 O   0  0  0  0  0  0  0  0  0  0  0  0
   25.3535   -0.0758  -11.0928 C   0  0  0  0  0  0  0  0  0  0  0  0
   24.1825   -0.0797  -11.8623 C   0  0  0  0  0  0  0  0  0  0  0  0
   22.9960   -0.6197  -11.4341 C   0  0  0  0  0  0  0  0  0  0  0  0
   22.9333   -1.1916  -10.1871 C   0  0  0  0  0  0  0  0  0  0  0  0
   21.7373   -1.7788   -9.6583 C   0  0  0  0  0  0  0  0  0  0  0  0
   20.7826   -2.2555   -9.2168 N   0  0  0  0  0  0  0  0  0  0  0  0
   24.0648   -1.1910   -9.4367 C   0  0  0  0  0  0  0  0  0  0  0  0
   25.2888   -0.6459   -9.8521 C   0  0  0  0  0  0  0  0  0  0  0  0
   26.6876   -0.6930   -8.8468 S   0  0  1  0  0  6  0  0  0  0  0  0
   27.4108    0.8542   -8.4662 C   0  0  0  0  0  0  0  0  0  0  0  0
   26.4812   -1.5568   -7.6160 O   0  0  0  0  0  0  0  0  0  0  0  0
   27.7452   -1.4793   -9.6255 O   0  0  0  0  0  0  0  0  0  0  0  0
  1  2  1  1
  2  3  2  0
  2  4  2  0
  2  5  1  1
  5  6  2  0
  6  7  1  0
  7  8  2  0
  8  9  1  0
  9 10  3  0
  8 11  1  0
 11 12  2  0
 13 12  1  6
 14 13  1  6
 13 15  2  0
 13 16  2  0
 12  5  1  0
M  END
$$$$
