_rank17
     RDKit          3D

 16 16  0  0  0  0  0  0  0  0999 V2000
   28.0975    0.8289  -11.2653 C   0  0  0  0  0  0  0  0  0  0  0  0
   27.1419   -0.5257  -11.9669 S   0  0  1  0  0  6  0  0  0  0  0  0
   27.3701   -0.4644  -13.4169 O   0  0  0  0  0  0  0  0  0  0  0  0
   27.8107   -1.7955  -11.4633 O   0  0  0  0  0  0  0  0  0  0  0  0
   25.5443   -0.4829  -11.3832 C   0  0  0  0  0  0  0  0  0  0  0  0
   24.5262   -0.8828  -12.2589 C   0  0  0  0  0  0  0  0  0  0  0  0
   23.1960   -0.8895  -11.9222 C   0  0  0  0  0  0  0  0  0  0  0  0
   22.8232   -0.4859  -10.6636 C   0  0  0  0  0  0  0  0  0  0  0  0
   21.4584   -0.4605  -10.2258 C   0  0  0  0  0  0  0  0  0  0  0  0
   20.3644   -0.4433   -9.8561 N   0  0  0  0  0  0  0  0  0  0  0  0
   23.8051   -0.0974   -9.8103 C   0  0  0  0  0  0  0  0  0  0  0  0
   25.1707   -0.0819  -10.1310 C   0  0  0  0  0  0  0  0  0  0  0  0
   26.3624    0.4141   -8.9892 S   0  0  1  0  0  6  0  0  0  0  0  0
   26.7175   -0.7237   -7.7083 C   0  0  0  0  0  0  0  0  0  0  0  0
   27.6162    0.9431   -9.6612 O   0  0  0  0  0  0  0  0  0  0  0  0
   25.8034    1.6653   -8.3069 O   0  0  0  0  0  0  0  0  0  0  0  0
  1  2  1  1
  2  3  2  0
  2  4  2  0
  2  5  1  6
  5  6  2  0
  6  7  1  0
  7  8  2  0
  8  9  1  0
  9 10  3  0
  8 11  1  0
 11 12  2  0
 13 12  1  6
 14 13  1  6
 13 15  2  0
 13 16  2  0
 12  5  1  0
M  END
$$$$
