_rank3
     RDKit          3D

 16 16  0  0  0  0  0  0  0  0999 V2000
   28.1471   -1.4360   -9.6696 C   0  0  0  0  0  0  0  0  0  0  0  0
   27.2010   -0.0724   -8.9727 S   0  0  1  0  0  6  0  0  0  0  0  0
   27.3715   -0.1727   -7.5170 O   0  0  0  0  0  0  0  0  0  0  0  0
   27.9215    1.1900   -9.4204 O   0  0  0  0  0  0  0  0  0  0  0  0
   25.6264   -0.0588   -9.6173 C   0  0  0  0  0  0  0  0  0  0  0  0
   24.5622   -0.2469   -8.7255 C   0  0  0  0  0  0  0  0  0  0  0  0
   23.2452   -0.2668   -9.1103 C   0  0  0  0  0  0  0  0  0  0  0  0
   22.9338   -0.0947  -10.4367 C   0  0  0  0  0  0  0  0  0  0  0  0
   21.5872   -0.1012  -10.9282 C   0  0  0  0  0  0  0  0  0  0  0  0
   20.4964   -0.1101  -11.3073 N   0  0  0  0  0  0  0  0  0  0  0  0
   23.9607    0.0882  -11.3059 C   0  0  0  0  0  0  0  0  0  0  0  0
   25.3139    0.1126  -10.9370 C   0  0  0  0  0  0  0  0  0  0  0  0
   26.5634    0.3618  -12.0973 S   0  0  1  0  0  6  0  0  0  0  0  0
   26.2130    1.5150  -13.3657 C   0  0  0  0  0  0  0  0  0  0  0  0
   27.9119    0.6066  -11.4452 O   0  0  0  0  0  0  0  0  0  0  0  0
   26.7748   -0.9861  -12.7913 O   0  0  0  0  0  0  0  0  0  0  0  0
  1  2  1  1
  2  3  2  0
  2  4  2  0
  2  5  1  1
  5  6  2  0
  6  7  1  0
  7  8  2  0
  8  9  1  0
  9 10  3  0
  8 11  1  0
 11 12  2  0
 13 12  1  1
 14 13  1  6
 13 15  2  0
 13 16  2  0
 12  5  1  0
M  END
$$$$
