_rank4
     RDKit          3D

 16 16  0  0  0  0  0  0  0  0999 V2000
   27.6381    1.3378   -8.5091 C   0  0  0  0  0  0  0  0  0  0  0  0
   27.0479   -0.3304   -8.8395 S   0  0  1  0  0  6  0  0  0  0  0  0
   28.1018   -0.9752   -9.6343 O   0  0  0  0  0  0  0  0  0  0  0  0
   27.0211   -1.0250   -7.4867 O   0  0  0  0  0  0  0  0  0  0  0  0
   25.4639   -0.2821   -9.4588 C   0  0  0  0  0  0  0  0  0  0  0  0
   24.4195   -0.6185   -8.5874 C   0  0  0  0  0  0  0  0  0  0  0  0
   23.0980   -0.6293   -8.9565 C   0  0  0  0  0  0  0  0  0  0  0  0
   22.7613   -0.2953  -10.2453 C   0  0  0  0  0  0  0  0  0  0  0  0
   21.4081   -0.2798  -10.7181 C   0  0  0  0  0  0  0  0  0  0  0  0
   20.3237   -0.2734  -11.1153 N   0  0  0  0  0  0  0  0  0  0  0  0
   23.7688    0.0318  -11.0946 C   0  0  0  0  0  0  0  0  0  0  0  0
   25.1263    0.0503  -10.7411 C   0  0  0  0  0  0  0  0  0  0  0  0
   26.3498    0.4881  -11.8728 S   0  0  1  0  0  6  0  0  0  0  0  0
   25.9756    0.1978  -13.5572 C   0  0  0  0  0  0  0  0  0  0  0  0
   26.8833    1.8879  -11.6287 O   0  0  0  0  0  0  0  0  0  0  0  0
   27.5632   -0.3865  -11.5475 O   0  0  0  0  0  0  0  0  0  0  0  0
  1  2  1  1
  2  3  2  0
  2  4  2  0
  2  5  1  6
  5  6  2  0
  6  7  1  0
  7  8  2  0
  8  9  1  0
  9 10  3  0
  8 11  1  0
 11 12  2  0
 13 12  1  1
 14 13  1  6
 13 15  2  0
 13 16  2  0
 12  5  1  0
M  END
$$$$
