_rank16
     RDKit          3D

 16 16  0  0  0  0  0  0  0  0999 V2000
   27.8105   -1.7807  -10.5467 C   0  0  0  0  0  0  0  0  0  0  0  0
   26.8195   -0.7730   -9.4319 S   0  0  1  0  0  6  0  0  0  0  0  0
   27.0134   -1.3504   -8.0950 O   0  0  0  0  0  0  0  0  0  0  0  0
   27.4825    0.5959   -9.4271 O   0  0  0  0  0  0  0  0  0  0  0  0
   25.2372   -0.6100  -10.0358 C   0  0  0  0  0  0  0  0  0  0  0  0
   24.2586   -1.4718   -9.5230 C   0  0  0  0  0  0  0  0  0  0  0  0
   22.9471   -1.4549   -9.9262 C   0  0  0  0  0  0  0  0  0  0  0  0
   22.5536   -0.5516  -10.8828 C   0  0  0  0  0  0  0  0  0  0  0  0
   21.2060   -0.4630  -11.3635 C   0  0  0  0  0  0  0  0  0  0  0  0
   20.1186   -0.3756  -11.7424 N   0  0  0  0  0  0  0  0  0  0  0  0
   23.4972    0.2865  -11.3835 C   0  0  0  0  0  0  0  0  0  0  0  0
   24.8430    0.2885  -10.9876 C   0  0  0  0  0  0  0  0  0  0  0  0
   25.9823    1.3921  -11.6612 S   0  0  1  0  0  6  0  0  0  0  0  0
   25.3105    2.8074  -12.4404 C   0  0  0  0  0  0  0  0  0  0  0  0
   27.0928    1.7374  -10.6858 O   0  0  0  0  0  0  0  0  0  0  0  0
   26.7310    0.6194  -12.7500 O   0  0  0  0  0  0  0  0  0  0  0  0
  1  2  1  1
  2  3  2  0
  2  4  2  0
  2  5  1  6
  5  6  2  0
  6  7  1  0
  7  8  2  0
  8  9  1  0
  9 10  3  0
  8 11  1  0
 11 12  2  0
 13 12  1  1
 14 13  1  6
 13 15  2  0
 13 16  2  0
 12  5  1  0
M  END
$$$$
