_rank10
     RDKit          3D

 16 16  0  0  0  0  0  0  0  0999 V2000
   26.8989    1.3042   -8.1437 C   0  0  0  0  0  0  0  0  0  0  0  0
   26.8797   -0.1004   -9.2693 S   0  0  1  0  0  6  0  0  0  0  0  0
   28.0201    0.0989  -10.1737 O   0  0  0  0  0  0  0  0  0  0  0  0
   27.1997   -1.3127   -8.4083 O   0  0  0  0  0  0  0  0  0  0  0  0
   25.3268   -0.2996   -9.9353 C   0  0  0  0  0  0  0  0  0  0  0  0
   24.3305   -0.8274   -9.1034 C   0  0  0  0  0  0  0  0  0  0  0  0
   23.0394   -1.0477   -9.5127 C   0  0  0  0  0  0  0  0  0  0  0  0
   22.6860   -0.7405  -10.8037 C   0  0  0  0  0  0  0  0  0  0  0  0
   21.3621   -0.9375  -11.3170 C   0  0  0  0  0  0  0  0  0  0  0  0
   20.2975   -1.1142  -11.7283 N   0  0  0  0  0  0  0  0  0  0  0  0
   23.6469   -0.2286  -11.6148 C   0  0  0  0  0  0  0  0  0  0  0  0
   24.9725    0.0057  -11.2198 C   0  0  0  0  0  0  0  0  0  0  0  0
   26.1354    0.6701  -12.3041 S   0  0  1  0  0  6  0  0  0  0  0  0
   27.6275   -0.2280  -12.4727 C   0  0  0  0  0  0  0  0  0  0  0  0
   25.5254    1.0407  -13.6436 O   0  0  0  0  0  0  0  0  0  0  0  0
   26.5209    2.0359  -11.7304 O   0  0  0  0  0  0  0  0  0  0  0  0
  1  2  1  1
  2  3  2  0
  2  4  2  0
  2  5  1  6
  5  6  2  0
  6  7  1  0
  7  8  2  0
  8  9  1  0
  9 10  3  0
  8 11  1  0
 11 12  2  0
 13 12  1  1
 14 13  1  6
 13 15  2  0
 13 16  2  0
 12  5  1  0
M  END
$$$$
