_rank1
     RDKit          3D

 16 16  0  0  0  0  0  0  0  0999 V2000
   27.9647    1.2362   -9.0940 C   0  0  0  0  0  0  0  0  0  0  0  0
   27.1238   -0.3552   -9.1208 S   0  0  1  0  0  6  0  0  0  0  0  0
   28.0334   -1.2742   -9.8182 O   0  0  0  0  0  0  0  0  0  0  0  0
   27.0625   -0.8044   -7.6690 O   0  0  0  0  0  0  0  0  0  0  0  0
   25.5353   -0.1716   -9.7020 C   0  0  0  0  0  0  0  0  0  0  0  0
   24.4872   -0.4303   -8.8089 C   0  0  0  0  0  0  0  0  0  0  0  0
   23.1611   -0.3294   -9.1467 C   0  0  0  0  0  0  0  0  0  0  0  0
   22.8234    0.0438  -10.4244 C   0  0  0  0  0  0  0  0  0  0  0  0
   21.4656    0.1745  -10.8649 C   0  0  0  0  0  0  0  0  0  0  0  0
   20.3699    0.2616  -11.2193 N   0  0  0  0  0  0  0  0  0  0  0  0
   23.8346    0.2961  -11.2946 C   0  0  0  0  0  0  0  0  0  0  0  0
   25.1967    0.2001  -10.9732 C   0  0  0  0  0  0  0  0  0  0  0  0
   26.4258    0.5479  -12.1300 S   0  0  1  0  0  6  0  0  0  0  0  0
   25.9287    1.4924  -13.5164 C   0  0  0  0  0  0  0  0  0  0  0  0
   27.6882    1.0864  -11.4820 O   0  0  0  0  0  0  0  0  0  0  0  0
   26.8896   -0.8041  -12.6778 O   0  0  0  0  0  0  0  0  0  0  0  0
  1  2  1  1
  2  3  2  0
  2  4  2  0
  2  5  1  6
  5  6  2  0
  6  7  1  0
  7  8  2  0
  8  9  1  0
  9 10  3  0
  8 11  1  0
 11 12  2  0
 13 12  1  1
 14 13  1  6
 13 15  2  0
 13 16  2  0
 12  5  1  0
M  END
$$$$
