_rank6
     RDKit          3D

 16 16  0  0  0  0  0  0  0  0999 V2000
   27.3840    0.8024   -8.1283 C   0  0  0  0  0  0  0  0  0  0  0  0
   27.1186   -0.5119   -9.3292 S   0  0  1  0  0  6  0  0  0  0  0  0
   28.2255   -0.4034  -10.2890 O   0  0  0  0  0  0  0  0  0  0  0  0
   27.3202   -1.8087   -8.5605 O   0  0  0  0  0  0  0  0  0  0  0  0
   25.5196   -0.4650   -9.9091 C   0  0  0  0  0  0  0  0  0  0  0  0
   24.5182   -0.9950   -9.0847 C   0  0  0  0  0  0  0  0  0  0  0  0
   23.1908   -1.0290   -9.4306 C   0  0  0  0  0  0  0  0  0  0  0  0
   22.8038   -0.5209  -10.6464 C   0  0  0  0  0  0  0  0  0  0  0  0
   21.4407   -0.5149  -11.0901 C   0  0  0  0  0  0  0  0  0  0  0  0
   20.3484   -0.5091  -11.4649 N   0  0  0  0  0  0  0  0  0  0  0  0
   23.7695   -0.0058  -11.4497 C   0  0  0  0  0  0  0  0  0  0  0  0
   25.1319    0.0404  -11.1185 C   0  0  0  0  0  0  0  0  0  0  0  0
   26.2999    0.7215  -12.1870 S   0  0  1  0  0  6  0  0  0  0  0  0
   25.6732    1.4182  -13.6646 C   0  0  0  0  0  0  0  0  0  0  0  0
   27.2623    1.6498  -11.4689 O   0  0  0  0  0  0  0  0  0  0  0  0
   27.2123   -0.4320  -12.6115 O   0  0  0  0  0  0  0  0  0  0  0  0
  1  2  1  1
  2  3  2  0
  2  4  2  0
  2  5  1  6
  5  6  2  0
  6  7  1  0
  7  8  2  0
  8  9  1  0
  9 10  3  0
  8 11  1  0
 11 12  2  0
 13 12  1  1
 14 13  1  6
 13 15  2  0
 13 16  2  0
 12  5  1  0
M  END
$$$$
