_rank5
     RDKit          3D

 16 16  0  0  0  0  0  0  0  0999 V2000
   27.4366   -1.5929   -8.2880 C   0  0  0  0  0  0  0  0  0  0  0  0
   26.9952   -0.2206   -9.3662 S   0  0  1  0  0  6  0  0  0  0  0  0
   27.3070    0.9980   -8.6073 O   0  0  0  0  0  0  0  0  0  0  0  0
   27.9761   -0.2867  -10.5268 O   0  0  0  0  0  0  0  0  0  0  0  0
   25.4193   -0.4317   -9.9720 C   0  0  0  0  0  0  0  0  0  0  0  0
   24.5208   -1.1699   -9.1903 C   0  0  0  0  0  0  0  0  0  0  0  0
   23.2242   -1.4232   -9.5612 C   0  0  0  0  0  0  0  0  0  0  0  0
   22.7643   -0.9350  -10.7596 C   0  0  0  0  0  0  0  0  0  0  0  0
   21.4265   -1.1507  -11.2270 C   0  0  0  0  0  0  0  0  0  0  0  0
   20.3537   -1.3190  -11.6203 N   0  0  0  0  0  0  0  0  0  0  0  0
   23.6302   -0.2187  -11.5216 C   0  0  0  0  0  0  0  0  0  0  0  0
   24.9592    0.0535  -11.1642 C   0  0  0  0  0  0  0  0  0  0  0  0
   25.9969    0.9816  -12.1798 S   0  0  1  0  0  6  0  0  0  0  0  0
   27.3139    0.1093  -12.9323 C   0  0  0  0  0  0  0  0  0  0  0  0
   25.2213    1.8311  -13.1700 O   0  0  0  0  0  0  0  0  0  0  0  0
   26.6428    2.0365  -11.2781 O   0  0  0  0  0  0  0  0  0  0  0  0
  1  2  1  1
  2  3  2  0
  2  4  2  0
  2  5  1  6
  5  6  2  0
  6  7  1  0
  7  8  2  0
  8  9  1  0
  9 10  3  0
  8 11  1  0
 11 12  2  0
 13 12  1  1
 14 13  1  6
 13 15  2  0
 13 16  2  0
 12  5  1  0
M  END
$$$$
