_rank15
     RDKit          3D

 16 16  0  0  0  0  0  0  0  0999 V2000
   27.7160   -0.2345  -12.5406 C   0  0  0  0  0  0  0  0  0  0  0  0
   26.3571    0.9167  -12.2792 S   0  0  1  0  0  6  0  0  0  0  0  0
   26.9334    2.0531  -11.5480 O   0  0  0  0  0  0  0  0  0  0  0  0
   25.9824    1.4211  -13.6643 O   0  0  0  0  0  0  0  0  0  0  0  0
   25.0178    0.1048  -11.6142 C   0  0  0  0  0  0  0  0  0  0  0  0
   23.9548   -0.1993  -12.4748 C   0  0  0  0  0  0  0  0  0  0  0  0
   22.8123   -0.8427  -12.0703 C   0  0  0  0  0  0  0  0  0  0  0  0
   22.6858   -1.2164  -10.7549 C   0  0  0  0  0  0  0  0  0  0  0  0
   21.5289   -1.8917  -10.2444 C   0  0  0  0  0  0  0  0  0  0  0  0
   20.6063   -2.4513   -9.8328 N   0  0  0  0  0  0  0  0  0  0  0  0
   23.7126   -0.9247   -9.9159 C   0  0  0  0  0  0  0  0  0  0  0  0
   24.8897   -0.2685  -10.3054 C   0  0  0  0  0  0  0  0  0  0  0  0
   26.1569    0.0577   -9.1840 S   0  0  1  0  0  6  0  0  0  0  0  0
   27.7677   -0.3976   -9.6934 C   0  0  0  0  0  0  0  0  0  0  0  0
   26.0963    1.4755   -8.6458 O   0  0  0  0  0  0  0  0  0  0  0  0
   25.8496   -0.7788   -7.9394 O   0  0  0  0  0  0  0  0  0  0  0  0
  1  2  1  1
  2  3  2  0
  2  4  2  0
  2  5  1  1
  5  6  2  0
  6  7  1  0
  7  8  2  0
  8  9  1  0
  9 10  3  0
  8 11  1  0
 11 12  2  0
 13 12  1  6
 14 13  1  6
 13 15  2  0
 13 16  2  0
 12  5  1  0
M  END
$$$$
