_rank19
     RDKit          3D

 16 16  0  0  0  0  0  0  0  0999 V2000
   27.8889   -1.8136   -9.1594 C   0  0  0  0  0  0  0  0  0  0  0  0
   27.2222   -1.4066  -10.7811 S   0  0  1  0  0  6  0  0  0  0  0  0
   28.0674   -0.3219  -11.2981 O   0  0  0  0  0  0  0  0  0  0  0  0
   27.4873   -2.6295  -11.6457 O   0  0  0  0  0  0  0  0  0  0  0  0
   25.5411   -1.1633  -10.6820 C   0  0  0  0  0  0  0  0  0  0  0  0
   24.7195   -2.0244  -11.4214 C   0  0  0  0  0  0  0  0  0  0  0  0
   23.3504   -1.9360  -11.4395 C   0  0  0  0  0  0  0  0  0  0  0  0
   22.7340   -0.9571  -10.6993 C   0  0  0  0  0  0  0  0  0  0  0  0
   21.3108   -0.7906  -10.6588 C   0  0  0  0  0  0  0  0  0  0  0  0
   20.1639   -0.6646  -10.6098 N   0  0  0  0  0  0  0  0  0  0  0  0
   23.5247   -0.1196   -9.9804 C   0  0  0  0  0  0  0  0  0  0  0  0
   24.9253   -0.1900   -9.9457 C   0  0  0  0  0  0  0  0  0  0  0  0
   25.8627    0.9028   -8.9988 S   0  0  1  0  0  6  0  0  0  0  0  0
   25.1092    2.4381   -8.6293 C   0  0  0  0  0  0  0  0  0  0  0  0
   26.4556    0.2357   -7.7711 O   0  0  0  0  0  0  0  0  0  0  0  0
   27.1072    1.2262   -9.8293 O   0  0  0  0  0  0  0  0  0  0  0  0
  1  2  1  1
  2  3  2  0
  2  4  2  0
  2  5  1  1
  5  6  2  0
  6  7  1  0
  7  8  2  0
  8  9  1  0
  9 10  3  0
  8 11  1  0
 11 12  2  0
 13 12  1  6
 14 13  1  6
 13 15  2  0
 13 16  2  0
 12  5  1  0
M  END
$$$$
