_rank5
     RDKit          3D

 19 20  0  0  0  0  0  0  0  0999 V2000
   19.3246    1.0255   -8.5043 C   0  0  0  0  0  0  0  0  0  0  0  0
   18.8578    1.1547   -9.9386 C   0  0  0  0  0  0  0  0  0  0  0  0
   19.8869    0.5304  -10.8577 C   0  0  2  0  0  0  0  0  0  0  0  0
   19.3845   -0.8245  -11.3300 C   0  0  0  0  0  0  0  0  0  0  0  0
   20.0193   -1.8938  -10.4629 C   0  0  0  0  0  0  0  0  0  0  0  0
   21.4772   -1.9902  -10.8472 C   0  0  1  0  0  0  0  0  0  0  0  0
   21.6369   -2.5184  -12.1909 N   0  0  0  0  0  0  0  0  0  0  0  0
   22.1002   -0.6319  -10.6779 C   0  0  2  0  0  0  0  0  0  0  0  0
   23.2119   -0.6966   -9.8172 O   0  0  0  0  0  0  0  0  0  0  0  0
   24.5301   -0.5826  -10.1679 C   0  0  0  0  0  0  0  0  0  0  0  0
   25.0242   -0.6073  -11.4388 C   0  0  0  0  0  0  0  0  0  0  0  0
   26.3906   -0.4812  -11.6677 C   0  0  0  0  0  0  0  0  0  0  0  0
   26.8696   -0.5062  -12.9214 F   0  0  0  0  0  0  0  0  0  0  0  0
   27.2545   -0.3298  -10.6020 C   0  0  0  0  0  0  0  0  0  0  0  0
   26.7640   -0.3040   -9.3177 C   0  0  0  0  0  0  0  0  0  0  0  0
   27.6523   -0.1457   -8.1788 C   0  0  0  0  0  0  0  0  0  0  0  0
   28.3528   -0.0085   -7.2791 N   0  0  0  0  0  0  0  0  0  0  0  0
   25.4278   -0.4282   -9.1086 C   0  0  0  0  0  0  0  0  0  0  0  0
   21.1677    0.3945  -10.0713 C   0  0  0  0  0  0  0  0  0  0  0  0
  2  1  1  1
  3  2  1  1
  4  3  1  6
  5  4  1  6
  5  6  1  0
  6  7  1  6
  6  8  1  0
  8  9  1  1
  9 10  1  0
 10 11  2  0
 11 12  1  0
 12 13  1  0
 12 14  2  0
 14 15  1  0
 15 16  1  0
 16 17  3  0
 15 18  2  0
 19  8  1  6
 19  3  1  0
 18 10  1  0
M  END
$$$$
