_rank1
     RDKit          3D

 19 20  0  0  0  0  0  0  0  0999 V2000
   27.5525   -0.0518   -8.1806 C   0  0  0  0  0  0  0  0  0  0  0  0
   28.1632   -0.4836   -9.4968 C   0  0  0  0  0  0  0  0  0  0  0  0
   27.0572   -0.8304  -10.4714 C   0  0  2  0  0  0  0  0  0  0  0  0
   27.1830    0.0446  -11.7083 C   0  0  0  0  0  0  0  0  0  0  0  0
   26.2199    1.2068  -11.5664 C   0  0  0  0  0  0  0  0  0  0  0  0
   24.8205    0.6678  -11.7502 C   0  0  1  0  0  0  0  0  0  0  0  0
   24.5997    0.2219  -13.1149 N   0  0  0  0  0  0  0  0  0  0  0  0
   24.5986   -0.4227  -10.7386 C   0  0  2  0  0  0  0  0  0  0  0  0
   23.4640   -0.1501   -9.9517 O   0  0  0  0  0  0  0  0  0  0  0  0
   22.1692   -0.4961  -10.2296 C   0  0  0  0  0  0  0  0  0  0  0  0
   21.7643   -1.6322  -10.8662 C   0  0  0  0  0  0  0  0  0  0  0  0
   20.4126   -1.8719  -11.0915 C   0  0  0  0  0  0  0  0  0  0  0  0
   20.0216   -2.9925  -11.7186 F   0  0  0  0  0  0  0  0  0  0  0  0
   19.4724   -0.9542  -10.6683 C   0  0  0  0  0  0  0  0  0  0  0  0
   19.8727    0.1936  -10.0258 C   0  0  0  0  0  0  0  0  0  0  0  0
   18.9029    1.1752   -9.5704 C   0  0  0  0  0  0  0  0  0  0  0  0
   18.1283    1.9420   -9.2089 N   0  0  0  0  0  0  0  0  0  0  0  0
   21.1956    0.4150   -9.8124 C   0  0  0  0  0  0  0  0  0  0  0  0
   25.7451   -0.5927   -9.7650 C   0  0  0  0  0  0  0  0  0  0  0  0
  2  1  1  1
  3  2  1  1
  4  3  1  6
  5  4  1  6
  5  6  1  0
  6  7  1  6
  6  8  1  0
  8  9  1  1
  9 10  1  0
 10 11  2  0
 11 12  1  0
 12 13  1  0
 12 14  2  0
 14 15  1  0
 15 16  1  0
 16 17  3  0
 15 18  2  0
 19  8  1  6
 19  3  1  0
 18 10  1  0
M  END
$$$$
