_rank3
     RDKit          3D

 19 20  0  0  0  0  0  0  0  0999 V2000
   19.2427    2.2447   -9.5859 C   0  0  0  0  0  0  0  0  0  0  0  0
   18.8155    0.8102   -9.8128 C   0  0  0  0  0  0  0  0  0  0  0  0
   19.8106    0.1312  -10.7305 C   0  0  2  0  0  0  0  0  0  0  0  0
   19.3178   -1.2686  -11.0605 C   0  0  0  0  0  0  0  0  0  0  0  0
   20.0228   -2.2478  -10.1425 C   0  0  0  0  0  0  0  0  0  0  0  0
   21.4608   -2.3470  -10.5951 C   0  0  1  0  0  0  0  0  0  0  0  0
   21.5636   -2.9836  -11.8968 N   0  0  0  0  0  0  0  0  0  0  0  0
   22.0582   -0.9670  -10.5734 C   0  0  2  0  0  0  0  0  0  0  0  0
   23.2142   -0.9363   -9.7712 O   0  0  0  0  0  0  0  0  0  0  0  0
   24.4996   -0.7227  -10.1905 C   0  0  0  0  0  0  0  0  0  0  0  0
   24.8739   -0.2635  -11.4189 C   0  0  0  0  0  0  0  0  0  0  0  0
   26.2190   -0.0869  -11.7270 C   0  0  0  0  0  0  0  0  0  0  0  0
   26.5799    0.3655  -12.9381 F   0  0  0  0  0  0  0  0  0  0  0  0
   27.1837   -0.3780  -10.7837 C   0  0  0  0  0  0  0  0  0  0  0  0
   26.8142   -0.8414   -9.5429 C   0  0  0  0  0  0  0  0  0  0  0  0
   27.8102   -1.1549   -8.5324 C   0  0  0  0  0  0  0  0  0  0  0  0
   28.6061   -1.4008   -7.7419 N   0  0  0  0  0  0  0  0  0  0  0  0
   25.4975   -1.0092   -9.2555 C   0  0  0  0  0  0  0  0  0  0  0  0
   21.1334    0.0881  -10.0054 C   0  0  0  0  0  0  0  0  0  0  0  0
  2  1  1  1
  3  2  1  1
  4  3  1  6
  5  4  1  6
  5  6  1  0
  6  7  1  6
  6  8  1  0
  8  9  1  1
  9 10  1  0
 10 11  2  0
 11 12  1  0
 12 13  1  0
 12 14  2  0
 14 15  1  0
 15 16  1  0
 16 17  3  0
 15 18  2  0
 19  8  1  6
 19  3  1  0
 18 10  1  0
M  END
$$$$
