_rank10
     RDKit          3D

 19 20  0  0  0  0  0  0  0  0999 V2000
   27.0192    0.6661   -8.3592 C   0  0  0  0  0  0  0  0  0  0  0  0
   26.9017    0.2824   -9.8189 C   0  0  0  0  0  0  0  0  0  0  0  0
   25.8045   -0.7492   -9.9782 C   0  0  2  0  0  0  0  0  0  0  0  0
   26.2261   -1.7769  -11.0160 C   0  0  0  0  0  0  0  0  0  0  0  0
   25.5889   -1.4026  -12.3397 C   0  0  0  0  0  0  0  0  0  0  0  0
   24.1114   -1.7019  -12.2384 C   0  0  1  0  0  0  0  0  0  0  0  0
   23.8657   -3.1307  -12.1471 N   0  0  0  0  0  0  0  0  0  0  0  0
   23.5551   -0.9397  -11.0674 C   0  0  2  0  0  0  0  0  0  0  0  0
   22.4841   -0.1198  -11.4691 O   0  0  0  0  0  0  0  0  0  0  0  0
   21.2006   -0.1539  -10.9946 C   0  0  0  0  0  0  0  0  0  0  0  0
   20.1436   -0.7748  -11.5922 C   0  0  0  0  0  0  0  0  0  0  0  0
   18.8812   -0.7383  -11.0088 C   0  0  0  0  0  0  0  0  0  0  0  0
   17.8456   -1.3519  -11.6028 F   0  0  0  0  0  0  0  0  0  0  0  0
   18.6948   -0.0691   -9.8161 C   0  0  0  0  0  0  0  0  0  0  0  0
   19.7556    0.5594   -9.2074 C   0  0  0  0  0  0  0  0  0  0  0  0
   19.5858    1.2703   -7.9516 C   0  0  0  0  0  0  0  0  0  0  0  0
   19.4500    1.8425   -6.9652 N   0  0  0  0  0  0  0  0  0  0  0  0
   20.9826    0.5158   -9.7879 C   0  0  0  0  0  0  0  0  0  0  0  0
   24.5581   -0.0161  -10.4100 C   0  0  0  0  0  0  0  0  0  0  0  0
  2  1  1  1
  3  2  1  6
  4  3  1  6
  5  4  1  6
  5  6  1  0
  6  7  1  1
  6  8  1  0
  8  9  1  6
  9 10  1  0
 10 11  2  0
 11 12  1  0
 12 13  1  0
 12 14  2  0
 14 15  1  0
 15 16  1  0
 16 17  3  0
 15 18  2  0
 19  8  1  6
 19  3  1  0
 18 10  1  0
M  END
$$$$
