_rank14
     RDKit          3D

 19 20  0  0  0  0  0  0  0  0999 V2000
   26.1527    4.8107   -9.9554 C   0  0  0  0  0  0  0  0  0  0  0  0
   26.2426    4.2302  -11.3506 C   0  0  0  0  0  0  0  0  0  0  0  0
   26.4001    2.7269  -11.2577 C   0  0  2  0  0  0  0  0  0  0  0  0
   27.3626    2.2536  -12.3350 C   0  0  0  0  0  0  0  0  0  0  0  0
   26.5480    1.7472  -13.5090 C   0  0  0  0  0  0  0  0  0  0  0  0
   25.9224    0.4339  -13.1008 C   0  0  1  0  0  0  0  0  0  0  0  0
   26.9277   -0.6002  -12.9272 N   0  0  0  0  0  0  0  0  0  0  0  0
   25.1061    0.6663  -11.8592 C   0  0  2  0  0  0  0  0  0  0  0  0
   23.7747    0.2532  -12.0529 O   0  0  0  0  0  0  0  0  0  0  0  0
   22.9741   -0.3897  -11.1478 C   0  0  0  0  0  0  0  0  0  0  0  0
   21.8674   -1.1298  -11.4433 C   0  0  0  0  0  0  0  0  0  0  0  0
   21.1328   -1.7373  -10.4300 C   0  0  0  0  0  0  0  0  0  0  0  0
   20.0447   -2.4643  -10.7286 F   0  0  0  0  0  0  0  0  0  0  0  0
   21.5254   -1.5911   -9.1149 C   0  0  0  0  0  0  0  0  0  0  0  0
   22.6401   -0.8465   -8.8088 C   0  0  0  0  0  0  0  0  0  0  0  0
   23.0743   -0.6776   -7.4325 C   0  0  0  0  0  0  0  0  0  0  0  0
   23.4281   -0.5493   -6.3475 N   0  0  0  0  0  0  0  0  0  0  0  0
   23.3480   -0.2590   -9.8079 C   0  0  0  0  0  0  0  0  0  0  0  0
   25.0310    2.1196  -11.4429 C   0  0  0  0  0  0  0  0  0  0  0  0
  2  1  1  1
  3  2  1  6
  4  3  1  6
  5  4  1  6
  5  6  1  0
  6  7  1  1
  6  8  1  0
  8  9  1  6
  9 10  1  0
 10 11  2  0
 11 12  1  0
 12 13  1  0
 12 14  2  0
 14 15  1  0
 15 16  1  0
 16 17  3  0
 15 18  2  0
 19  8  1  6
 19  3  1  0
 18 10  1  0
M  END
$$$$
