_rank12
     RDKit          3D

 19 20  0  0  0  0  0  0  0  0999 V2000
   18.6892   -0.0935  -12.3843 C   0  0  0  0  0  0  0  0  0  0  0  0
   18.6978   -0.7007  -10.9976 C   0  0  0  0  0  0  0  0  0  0  0  0
   19.9936   -1.4567  -10.7906 C   0  0  2  0  0  0  0  0  0  0  0  0
   20.2432   -1.6304   -9.3011 C   0  0  0  0  0  0  0  0  0  0  0  0
   21.2068   -0.5491   -8.8529 C   0  0  0  0  0  0  0  0  0  0  0  0
   22.5708   -0.8933   -9.4039 C   0  0  1  0  0  0  0  0  0  0  0  0
   23.1069   -2.0909   -8.7806 N   0  0  0  0  0  0  0  0  0  0  0  0
   22.4585   -1.0155  -10.8986 C   0  0  2  0  0  0  0  0  0  0  0  0
   23.3676   -0.1531  -11.5394 O   0  0  0  0  0  0  0  0  0  0  0  0
   24.7146   -0.0642  -11.3130 C   0  0  0  0  0  0  0  0  0  0  0  0
   25.5932    0.7110  -12.0109 C   0  0  0  0  0  0  0  0  0  0  0  0
   26.9453    0.7154  -11.6839 C   0  0  0  0  0  0  0  0  0  0  0  0
   27.8041    1.4812  -12.3752 F   0  0  0  0  0  0  0  0  0  0  0  0
   27.4034   -0.0701  -10.6455 C   0  0  0  0  0  0  0  0  0  0  0  0
   26.5238   -0.8545   -9.9371 C   0  0  0  0  0  0  0  0  0  0  0  0
   26.9806   -1.6901   -8.8396 C   0  0  0  0  0  0  0  0  0  0  0  0
   27.3351   -2.3438   -7.9645 N   0  0  0  0  0  0  0  0  0  0  0  0
   25.2064   -0.8491  -10.2670 C   0  0  0  0  0  0  0  0  0  0  0  0
   21.0924   -0.6504  -11.4385 C   0  0  0  0  0  0  0  0  0  0  0  0
  2  1  1  1
  3  2  1  1
  4  3  1  6
  5  4  1  6
  5  6  1  0
  6  7  1  1
  6  8  1  0
  8  9  1  6
  9 10  1  0
 10 11  2  0
 11 12  1  0
 12 13  1  0
 12 14  2  0
 14 15  1  0
 15 16  1  0
 16 17  3  0
 15 18  2  0
 19  8  1  6
 19  3  1  0
 18 10  1  0
M  END
$$$$
