_rank9
     RDKit          3D

 19 20  0  0  0  0  0  0  0  0999 V2000
   19.8180   -3.3625  -11.7066 C   0  0  0  0  0  0  0  0  0  0  0  0
   19.2119   -2.5067  -10.6148 C   0  0  0  0  0  0  0  0  0  0  0  0
   20.3158   -1.7671   -9.8882 C   0  0  2  0  0  0  0  0  0  0  0  0
   19.8234   -0.3822   -9.4998 C   0  0  0  0  0  0  0  0  0  0  0  0
   20.3195    0.6054  -10.5377 C   0  0  0  0  0  0  0  0  0  0  0  0
   21.8072    0.7742  -10.3360 C   0  0  1  0  0  0  0  0  0  0  0  0
   22.0989    1.4426   -9.0797 N   0  0  0  0  0  0  0  0  0  0  0  0
   22.4536   -0.5799  -10.4385 C   0  0  2  0  0  0  0  0  0  0  0  0
   23.4584   -0.5798  -11.4239 O   0  0  0  0  0  0  0  0  0  0  0  0
   24.8105   -0.5223  -11.2184 C   0  0  0  0  0  0  0  0  0  0  0  0
   25.7671   -0.5100  -12.1904 C   0  0  0  0  0  0  0  0  0  0  0  0
   27.1154   -0.4493  -11.8534 C   0  0  0  0  0  0  0  0  0  0  0  0
   28.0513   -0.4374  -12.8156 F   0  0  0  0  0  0  0  0  0  0  0  0
   27.4902   -0.4013  -10.5259 C   0  0  0  0  0  0  0  0  0  0  0  0
   26.5316   -0.4133   -9.5401 C   0  0  0  0  0  0  0  0  0  0  0  0
   26.8999   -0.3633   -8.1354 C   0  0  0  0  0  0  0  0  0  0  0  0
   27.2028   -0.3241   -7.0284 N   0  0  0  0  0  0  0  0  0  0  0  0
   25.2189   -0.4727   -9.8832 C   0  0  0  0  0  0  0  0  0  0  0  0
   21.4945   -1.6846  -10.8269 C   0  0  0  0  0  0  0  0  0  0  0  0
  2  1  1  1
  3  2  1  6
  4  3  1  6
  5  4  1  6
  5  6  1  0
  6  7  1  1
  6  8  1  0
  8  9  1  6
  9 10  1  0
 10 11  2  0
 11 12  1  0
 12 13  1  0
 12 14  2  0
 14 15  1  0
 15 16  1  0
 16 17  3  0
 15 18  2  0
 19  8  1  6
 19  3  1  0
 18 10  1  0
M  END
$$$$
