_rank15
     RDKit          3D

 19 20  0  0  0  0  0  0  0  0999 V2000
   21.3383   -0.3287  -14.3901 C   0  0  0  0  0  0  0  0  0  0  0  0
   20.2698   -0.7771  -13.4159 C   0  0  0  0  0  0  0  0  0  0  0  0
   20.9223   -1.4964  -12.2539 C   0  0  2  0  0  0  0  0  0  0  0  0
   19.9315   -1.6010  -11.1057 C   0  0  0  0  0  0  0  0  0  0  0  0
   20.2224   -0.4817  -10.1253 C   0  0  0  0  0  0  0  0  0  0  0  0
   21.5100   -0.8206   -9.4113 C   0  0  1  0  0  0  0  0  0  0  0  0
   21.3489   -1.9790   -8.5499 N   0  0  0  0  0  0  0  0  0  0  0  0
   22.5867   -1.0088  -10.4444 C   0  0  2  0  0  0  0  0  0  0  0  0
   23.6768   -0.1557  -10.1901 O   0  0  0  0  0  0  0  0  0  0  0  0
   24.9393   -0.5263   -9.8128 C   0  0  0  0  0  0  0  0  0  0  0  0
   25.5717   -1.6825  -10.1641 C   0  0  0  0  0  0  0  0  0  0  0  0
   26.8615   -1.9465   -9.7148 C   0  0  0  0  0  0  0  0  0  0  0  0
   27.4776   -3.0865  -10.0648 F   0  0  0  0  0  0  0  0  0  0  0  0
   27.5081   -1.0327   -8.9072 C   0  0  0  0  0  0  0  0  0  0  0  0
   26.8772    0.1352   -8.5487 C   0  0  0  0  0  0  0  0  0  0  0  0
   27.5360    1.1133   -7.6998 C   0  0  0  0  0  0  0  0  0  0  0  0
   28.0629    1.8905   -7.0386 N   0  0  0  0  0  0  0  0  0  0  0  0
   25.6179    0.3802   -8.9945 C   0  0  0  0  0  0  0  0  0  0  0  0
   22.1379   -0.6957  -11.8556 C   0  0  0  0  0  0  0  0  0  0  0  0
  2  1  1  1
  3  2  1  6
  4  3  1  6
  5  4  1  6
  5  6  1  0
  6  7  1  6
  6  8  1  0
  8  9  1  1
  9 10  1  0
 10 11  2  0
 11 12  1  0
 12 13  1  0
 12 14  2  0
 14 15  1  0
 15 16  1  0
 16 17  3  0
 15 18  2  0
 19  8  1  6
 19  3  1  0
 18 10  1  0
M  END
$$$$
