_rank17
     RDKit          3D

 19 20  0  0  0  0  0  0  0  0999 V2000
   20.2416   -2.0369   -9.3211 C   0  0  0  0  0  0  0  0  0  0  0  0
   20.5248   -2.1767  -10.8016 C   0  0  0  0  0  0  0  0  0  0  0  0
   21.2916   -0.9620  -11.2811 C   0  0  2  0  0  0  0  0  0  0  0  0
   21.2244   -0.8903  -12.7982 C   0  0  0  0  0  0  0  0  0  0  0  0
   22.5014   -1.4860  -13.3577 C   0  0  0  0  0  0  0  0  0  0  0  0
   23.6213   -0.5095  -13.0840 C   0  0  1  0  0  0  0  0  0  0  0  0
   23.4610    0.7102  -13.8565 N   0  0  0  0  0  0  0  0  0  0  0  0
   23.6754   -0.2572  -11.6024 C   0  0  2  0  0  0  0  0  0  0  0  0
   24.9567   -0.5417  -11.0942 O   0  0  0  0  0  0  0  0  0  0  0  0
   25.3907   -0.3559   -9.8094 C   0  0  0  0  0  0  0  0  0  0  0  0
   24.6195    0.0306   -8.7531 C   0  0  0  0  0  0  0  0  0  0  0  0
   25.1797    0.1858   -7.4892 C   0  0  0  0  0  0  0  0  0  0  0  0
   24.4143    0.5663   -6.4542 F   0  0  0  0  0  0  0  0  0  0  0  0
   26.5261   -0.0527   -7.3007 C   0  0  0  0  0  0  0  0  0  0  0  0
   27.3102   -0.4426   -8.3608 C   0  0  0  0  0  0  0  0  0  0  0  0
   28.7299   -0.7000   -8.1886 C   0  0  0  0  0  0  0  0  0  0  0  0
   29.8542   -0.8970   -8.0626 N   0  0  0  0  0  0  0  0  0  0  0  0
   26.7503   -0.5903   -9.5892 C   0  0  0  0  0  0  0  0  0  0  0  0
   22.7152   -1.1123  -10.8036 C   0  0  0  0  0  0  0  0  0  0  0  0
  2  1  1  1
  3  2  1  6
  4  3  1  6
  5  4  1  6
  5  6  1  0
  6  7  1  6
  6  8  1  0
  8  9  1  1
  9 10  1  0
 10 11  2  0
 11 12  1  0
 12 13  1  0
 12 14  2  0
 14 15  1  0
 15 16  1  0
 16 17  3  0
 15 18  2  0
 19  8  1  6
 19  3  1  0
 18 10  1  0
M  END
$$$$
