_rank20
     RDKit          3D

 19 20  0  0  0  0  0  0  0  0999 V2000
   27.3588    0.6073  -11.5269 C   0  0  0  0  0  0  0  0  0  0  0  0
   26.4677    0.3545  -12.7244 C   0  0  0  0  0  0  0  0  0  0  0  0
   25.4373   -0.6965  -12.3680 C   0  0  2  0  0  0  0  0  0  0  0  0
   24.6867   -1.1122  -13.6230 C   0  0  0  0  0  0  0  0  0  0  0  0
   23.3799   -0.3450  -13.6695 C   0  0  0  0  0  0  0  0  0  0  0  0
   22.4744   -0.9166  -12.6037 C   0  0  1  0  0  0  0  0  0  0  0  0
   22.0705   -2.2746  -12.9245 N   0  0  0  0  0  0  0  0  0  0  0  0
   23.1822   -0.8171  -11.2805 C   0  0  2  0  0  0  0  0  0  0  0  0
   22.4006   -0.1090  -10.3486 O   0  0  0  0  0  0  0  0  0  0  0  0
   22.2269   -0.4104   -9.0248 C   0  0  0  0  0  0  0  0  0  0  0  0
   21.0296   -0.5365   -8.3840 C   0  0  0  0  0  0  0  0  0  0  0  0
   20.9832   -0.8473   -7.0288 C   0  0  0  0  0  0  0  0  0  0  0  0
   19.8011   -0.9699   -6.4049 F   0  0  0  0  0  0  0  0  0  0  0  0
   22.1567   -1.0300   -6.3255 C   0  0  0  0  0  0  0  0  0  0  0  0
   23.3678   -0.9046   -6.9644 C   0  0  0  0  0  0  0  0  0  0  0  0
   24.6172   -1.0921   -6.2467 C   0  0  0  0  0  0  0  0  0  0  0  0
   25.5986   -1.2455   -5.6703 N   0  0  0  0  0  0  0  0  0  0  0  0
   23.3985   -0.6008   -8.2878 C   0  0  0  0  0  0  0  0  0  0  0  0
   24.5050   -0.0847  -11.3511 C   0  0  0  0  0  0  0  0  0  0  0  0
  2  1  1  1
  3  2  1  6
  4  3  1  6
  5  4  1  6
  5  6  1  0
  6  7  1  6
  6  8  1  0
  8  9  1  1
  9 10  1  0
 10 11  2  0
 11 12  1  0
 12 13  1  0
 12 14  2  0
 14 15  1  0
 15 16  1  0
 16 17  3  0
 15 18  2  0
 19  8  1  6
 19  3  1  0
 18 10  1  0
M  END
$$$$
