_rank19
     RDKit          3D

 19 20  0  0  0  0  0  0  0  0999 V2000
   26.0982    0.5610  -10.4967 C   0  0  0  0  0  0  0  0  0  0  0  0
   26.3274   -0.2500   -9.2391 C   0  0  0  0  0  0  0  0  0  0  0  0
   25.2372   -1.2934   -9.1111 C   0  0  2  0  0  0  0  0  0  0  0  0
   25.6780   -2.5706   -9.8079 C   0  0  0  0  0  0  0  0  0  0  0  0
   25.0577   -2.5942  -11.1910 C   0  0  0  0  0  0  0  0  0  0  0  0
   23.5804   -2.8646  -11.0265 C   0  0  1  0  0  0  0  0  0  0  0  0
   23.3398   -4.2102  -10.5348 N   0  0  0  0  0  0  0  0  0  0  0  0
   23.0042   -1.8051  -10.1280 C   0  0  2  0  0  0  0  0  0  0  0  0
   21.9352   -1.1426  -10.7597 O   0  0  0  0  0  0  0  0  0  0  0  0
   21.5672    0.1655  -10.5951 C   0  0  0  0  0  0  0  0  0  0  0  0
   22.0906    1.2334  -11.2626 C   0  0  0  0  0  0  0  0  0  0  0  0
   21.6310    2.5211  -11.0057 C   0  0  0  0  0  0  0  0  0  0  0  0
   22.1509    3.5672  -11.6669 F   0  0  0  0  0  0  0  0  0  0  0  0
   20.6378    2.7217  -10.0686 C   0  0  0  0  0  0  0  0  0  0  0  0
   20.1050    1.6501   -9.3914 C   0  0  0  0  0  0  0  0  0  0  0  0
   19.0586    1.8346   -8.4003 C   0  0  0  0  0  0  0  0  0  0  0  0
   18.2318    1.9684   -7.6145 N   0  0  0  0  0  0  0  0  0  0  0  0
   20.5630    0.3984   -9.6520 C   0  0  0  0  0  0  0  0  0  0  0  0
   23.9937   -0.7241   -9.7490 C   0  0  0  0  0  0  0  0  0  0  0  0
  2  1  1  1
  3  2  1  6
  4  3  1  6
  5  4  1  6
  5  6  1  0
  6  7  1  1
  6  8  1  0
  8  9  1  6
  9 10  1  0
 10 11  2  0
 11 12  1  0
 12 13  1  0
 12 14  2  0
 14 15  1  0
 15 16  1  0
 16 17  3  0
 15 18  2  0
 19  8  1  6
 19  3  1  0
 18 10  1  0
M  END
$$$$
