_rank2
     RDKit          3D

 19 20  0  0  0  0  0  0  0  0999 V2000
   27.1719    0.3624   -7.7233 C   0  0  0  0  0  0  0  0  0  0  0  0
   27.8497   -0.1968   -8.9560 C   0  0  0  0  0  0  0  0  0  0  0  0
   26.8065   -0.8139   -9.8639 C   0  0  2  0  0  0  0  0  0  0  0  0
   27.3100   -0.7913  -11.2982 C   0  0  0  0  0  0  0  0  0  0  0  0
   26.7028    0.4107  -11.9946 C   0  0  0  0  0  0  0  0  0  0  0  0
   25.2378    0.1184  -12.2204 C   0  0  1  0  0  0  0  0  0  0  0  0
   25.0539   -0.9499  -13.1873 N   0  0  0  0  0  0  0  0  0  0  0  0
   24.6072   -0.1863  -10.8895 C   0  0  2  0  0  0  0  0  0  0  0  0
   23.5148    0.6676  -10.6478 O   0  0  0  0  0  0  0  0  0  0  0  0
   22.2343    0.2957  -10.3387 C   0  0  0  0  0  0  0  0  0  0  0  0
   21.3397    1.0317   -9.6189 C   0  0  0  0  0  0  0  0  0  0  0  0
   20.0614    0.5428   -9.3697 C   0  0  0  0  0  0  0  0  0  0  0  0
   19.1863    1.2730   -8.6607 F   0  0  0  0  0  0  0  0  0  0  0  0
   19.6935   -0.6963   -9.8537 C   0  0  0  0  0  0  0  0  0  0  0  0
   20.5898   -1.4444  -10.5802 C   0  0  0  0  0  0  0  0  0  0  0  0
   20.2271   -2.7516  -11.1009 C   0  0  0  0  0  0  0  0  0  0  0  0
   19.9486   -3.7898  -11.5050 N   0  0  0  0  0  0  0  0  0  0  0  0
   21.8345   -0.9550  -10.8161 C   0  0  0  0  0  0  0  0  0  0  0  0
   25.5440   -0.0008   -9.7151 C   0  0  0  0  0  0  0  0  0  0  0  0
  2  1  1  1
  3  2  1  1
  4  3  1  6
  5  4  1  6
  5  6  1  0
  6  7  1  6
  6  8  1  0
  8  9  1  1
  9 10  1  0
 10 11  2  0
 11 12  1  0
 12 13  1  0
 12 14  2  0
 14 15  1  0
 15 16  1  0
 16 17  3  0
 15 18  2  0
 19  8  1  6
 19  3  1  0
 18 10  1  0
M  END
$$$$
