_rank13
     RDKit          3D

 19 20  0  0  0  0  0  0  0  0999 V2000
   18.3659   -1.6518   -9.2409 C   0  0  0  0  0  0  0  0  0  0  0  0
   19.8500   -1.9444   -9.1809 C   0  0  0  0  0  0  0  0  0  0  0  0
   20.6029   -0.8677   -9.9341 C   0  0  2  0  0  0  0  0  0  0  0  0
   19.8843   -0.5704  -11.2404 C   0  0  0  0  0  0  0  0  0  0  0  0
   20.5754   -1.3417  -12.3476 C   0  0  0  0  0  0  0  0  0  0  0  0
   21.9072   -0.6772  -12.6072 C   0  0  1  0  0  0  0  0  0  0  0  0
   21.7358    0.6448  -13.1843 N   0  0  0  0  0  0  0  0  0  0  0  0
   22.6816   -0.6535  -11.3182 C   0  0  2  0  0  0  0  0  0  0  0  0
   23.9341   -1.2752  -11.4771 O   0  0  0  0  0  0  0  0  0  0  0  0
   25.0953   -0.9626  -10.8231 C   0  0  0  0  0  0  0  0  0  0  0  0
   26.3435   -0.9495  -11.3722 C   0  0  0  0  0  0  0  0  0  0  0  0
   27.4511   -0.6132  -10.6004 C   0  0  0  0  0  0  0  0  0  0  0  0
   28.6766   -0.6023  -11.1480 F   0  0  0  0  0  0  0  0  0  0  0  0
   27.2876   -0.2902   -9.2685 C   0  0  0  0  0  0  0  0  0  0  0  0
   26.0322   -0.3012   -8.7075 C   0  0  0  0  0  0  0  0  0  0  0  0
   25.8333    0.0352   -7.3080 C   0  0  0  0  0  0  0  0  0  0  0  0
   25.6882    0.3017   -6.2004 N   0  0  0  0  0  0  0  0  0  0  0  0
   24.9597   -0.6313   -9.4726 C   0  0  0  0  0  0  0  0  0  0  0  0
   21.9980   -1.3861  -10.1836 C   0  0  0  0  0  0  0  0  0  0  0  0
  2  1  1  1
  3  2  1  6
  4  3  1  6
  5  4  1  6
  5  6  1  0
  6  7  1  1
  6  8  1  0
  8  9  1  6
  9 10  1  0
 10 11  2  0
 11 12  1  0
 12 13  1  0
 12 14  2  0
 14 15  1  0
 15 16  1  0
 16 17  3  0
 15 18  2  0
 19  8  1  6
 19  3  1  0
 18 10  1  0
M  END
$$$$
