_rank11
     RDKit          3D

 20 21  0  0  0  0  0  0  0  0999 V2000
   18.6442   -4.0279  -10.8885 N   0  0  0  0  0  0  0  0  0  0  0  0
   19.2883   -3.0739  -10.7754 C   0  0  0  0  0  0  0  0  0  0  0  0
   20.1070   -1.8877  -10.6155 C   0  0  0  0  0  0  0  0  0  0  0  0
   19.5803   -0.8034   -9.9092 C   0  0  0  0  0  0  0  0  0  0  0  0
   20.3439    0.3308   -9.7479 C   0  0  0  0  0  0  0  0  0  0  0  0
   19.8341    1.3759   -9.0662 F   0  0  0  0  0  0  0  0  0  0  0  0
   21.6107    0.3867  -10.2798 C   0  0  0  0  0  0  0  0  0  0  0  0
   22.1621   -0.6741  -10.9866 C   0  0  0  0  0  0  0  0  0  0  0  0
   23.4383   -0.6040  -11.5164 O   0  0  0  0  0  0  0  0  0  0  0  0
   24.4953   -0.4179  -10.6035 C   0  0  0  0  0  0  0  0  0  0  0  0
   24.2888   -0.4794   -9.2792 N   0  0  0  0  0  0  0  0  0  0  0  0
   25.2805   -0.3051   -8.4003 C   0  0  0  0  0  0  0  0  0  0  0  0
   26.5816   -0.0506   -8.7973 C   0  0  0  0  0  0  0  0  0  0  0  0
   27.6592    0.1387   -7.8380 C   0  0  0  0  0  0  0  0  0  0  0  0
   27.4755    0.0770   -6.6158 O   0  0  0  0  0  0  0  0  0  0  0  0
   28.9328    0.3967   -8.3203 O   0  0  0  0  0  0  0  0  0  0  0  0
   26.7909    0.0120  -10.1526 C   0  0  0  0  0  0  0  0  0  0  0  0
   25.7699   -0.1675  -11.0495 C   0  0  0  0  0  0  0  0  0  0  0  0
   26.0775   -0.0773  -12.9410 Br  0  0  0  0  0  0  0  0  0  0  0  0
   21.3822   -1.8003  -11.1373 C   0  0  0  0  0  0  0  0  0  0  0  0
  1  2  3  0
  2  3  1  0
  3  4  2  0
  4  5  1  0
  5  6  1  0
  5  7  2  0
  7  8  1  0
  8  9  1  0
  9 10  1  0
 10 11  2  0
 11 12  1  0
 12 13  2  0
 13 14  1  0
 14 15  2  0
 14 16  1  0
 13 17  1  0
 17 18  2  0
 18 19  1  0
  8 20  2  0
 20  3  1  0
 18 10  1  0
M  END
$$$$
