_rank20
     RDKit          3D

 20 21  0  0  0  0  0  0  0  0999 V2000
   28.9333    0.2185   -7.9581 N   0  0  0  0  0  0  0  0  0  0  0  0
   28.1237    0.1690   -8.7828 C   0  0  0  0  0  0  0  0  0  0  0  0
   27.0925    0.1129   -9.8009 C   0  0  0  0  0  0  0  0  0  0  0  0
   27.1986    0.9613  -10.9058 C   0  0  0  0  0  0  0  0  0  0  0  0
   26.2285    0.9213  -11.8818 C   0  0  0  0  0  0  0  0  0  0  0  0
   26.3325    1.7405  -12.9471 F   0  0  0  0  0  0  0  0  0  0  0  0
   25.1697    0.0521  -11.7619 C   0  0  0  0  0  0  0  0  0  0  0  0
   25.0362   -0.8034  -10.6759 C   0  0  0  0  0  0  0  0  0  0  0  0
   23.9655   -1.6729  -10.5683 O   0  0  0  0  0  0  0  0  0  0  0  0
   22.6879   -1.1432  -10.8372 C   0  0  0  0  0  0  0  0  0  0  0  0
   22.3790   -0.6543  -12.0479 N   0  0  0  0  0  0  0  0  0  0  0  0
   21.1721   -0.1484  -12.3191 C   0  0  0  0  0  0  0  0  0  0  0  0
   20.1646   -0.0958  -11.3717 C   0  0  0  0  0  0  0  0  0  0  0  0
   18.8514    0.4556  -11.6700 C   0  0  0  0  0  0  0  0  0  0  0  0
   17.9563    0.5304  -10.8187 O   0  0  0  0  0  0  0  0  0  0  0  0
   18.6045    0.9104  -12.9558 O   0  0  0  0  0  0  0  0  0  0  0  0
   20.4824   -0.5964  -10.1337 C   0  0  0  0  0  0  0  0  0  0  0  0
   21.7221   -1.1141   -9.8612 C   0  0  0  0  0  0  0  0  0  0  0  0
   22.1521   -1.8103   -8.1259 Br  0  0  0  0  0  0  0  0  0  0  0  0
   26.0174   -0.7484   -9.7097 C   0  0  0  0  0  0  0  0  0  0  0  0
  1  2  3  0
  2  3  1  0
  3  4  2  0
  4  5  1  0
  5  6  1  0
  5  7  2  0
  7  8  1  0
  8  9  1  0
  9 10  1  0
 10 11  2  0
 11 12  1  0
 12 13  2  0
 13 14  1  0
 14 15  2  0
 14 16  1  0
 13 17  1  0
 17 18  2  0
 18 19  1  0
  8 20  2  0
 20  3  1  0
 18 10  1  0
M  END
$$$$
