_rank17
     RDKit          3D

 20 21  0  0  0  0  0  0  0  0999 V2000
   19.4486   -2.8407   -8.2213 N   0  0  0  0  0  0  0  0  0  0  0  0
   19.9260   -2.2355   -9.0837 C   0  0  0  0  0  0  0  0  0  0  0  0
   20.5330   -1.4615  -10.1492 C   0  0  0  0  0  0  0  0  0  0  0  0
   19.7232   -0.5992  -10.8925 C   0  0  0  0  0  0  0  0  0  0  0  0
   20.2830    0.1433  -11.9078 C   0  0  0  0  0  0  0  0  0  0  0  0
   19.5001    0.9746  -12.6239 F   0  0  0  0  0  0  0  0  0  0  0  0
   21.6261    0.0308  -12.1802 C   0  0  0  0  0  0  0  0  0  0  0  0
   22.4570   -0.8172  -11.4595 C   0  0  0  0  0  0  0  0  0  0  0  0
   23.8070   -0.9204  -11.7446 O   0  0  0  0  0  0  0  0  0  0  0  0
   24.7018   -0.6001  -10.7045 C   0  0  0  0  0  0  0  0  0  0  0  0
   24.2572   -0.1898   -9.5069 N   0  0  0  0  0  0  0  0  0  0  0  0
   25.0926    0.1177   -8.5101 C   0  0  0  0  0  0  0  0  0  0  0  0
   26.4672    0.0335   -8.6473 C   0  0  0  0  0  0  0  0  0  0  0  0
   27.3743    0.3690   -7.5602 C   0  0  0  0  0  0  0  0  0  0  0  0
   28.6045    0.3352   -7.6906 O   0  0  0  0  0  0  0  0  0  0  0  0
   26.8315    0.7383   -6.3395 O   0  0  0  0  0  0  0  0  0  0  0  0
   26.9202   -0.3864   -9.8732 C   0  0  0  0  0  0  0  0  0  0  0  0
   26.0586   -0.7006  -10.8921 C   0  0  0  0  0  0  0  0  0  0  0  0
   26.7063   -1.2861  -12.6004 Br  0  0  0  0  0  0  0  0  0  0  0  0
   21.8780   -1.5518  -10.4474 C   0  0  0  0  0  0  0  0  0  0  0  0
  1  2  3  0
  2  3  1  0
  3  4  2  0
  4  5  1  0
  5  6  1  0
  5  7  2  0
  7  8  1  0
  8  9  1  0
  9 10  1  0
 10 11  2  0
 11 12  1  0
 12 13  2  0
 13 14  1  0
 14 15  2  0
 14 16  1  0
 13 17  1  0
 17 18  2  0
 18 19  1  0
  8 20  2  0
 20  3  1  0
 18 10  1  0
M  END
$$$$
