_rank15
     RDKit          3D

 20 21  0  0  0  0  0  0  0  0999 V2000
   19.5382   -4.0975  -10.9039 N   0  0  0  0  0  0  0  0  0  0  0  0
   19.9779   -3.0318  -10.8109 C   0  0  0  0  0  0  0  0  0  0  0  0
   20.5414   -1.6991  -10.7142 C   0  0  0  0  0  0  0  0  0  0  0  0
   19.7679   -0.6875  -10.1394 C   0  0  0  0  0  0  0  0  0  0  0  0
   20.2872    0.5836  -10.0396 C   0  0  0  0  0  0  0  0  0  0  0  0
   19.5395    1.5583   -9.4848 F   0  0  0  0  0  0  0  0  0  0  0  0
   21.5549    0.8455  -10.5036 C   0  0  0  0  0  0  0  0  0  0  0  0
   22.3481   -0.1383  -11.0796 C   0  0  0  0  0  0  0  0  0  0  0  0
   23.6221    0.1395  -11.5422 O   0  0  0  0  0  0  0  0  0  0  0  0
   24.6729    0.0353  -10.6095 C   0  0  0  0  0  0  0  0  0  0  0  0
   24.4463    0.1474   -9.2918 N   0  0  0  0  0  0  0  0  0  0  0  0
   25.4319    0.0510   -8.3942 C   0  0  0  0  0  0  0  0  0  0  0  0
   26.7471   -0.1700   -8.7640 C   0  0  0  0  0  0  0  0  0  0  0  0
   27.8180   -0.2744   -7.7845 C   0  0  0  0  0  0  0  0  0  0  0  0
   28.3179   -1.3601   -7.4638 O   0  0  0  0  0  0  0  0  0  0  0  0
   28.2879    0.8890   -7.1955 O   0  0  0  0  0  0  0  0  0  0  0  0
   26.9770   -0.2844  -10.1125 C   0  0  0  0  0  0  0  0  0  0  0  0
   25.9622   -0.1847  -11.0286 C   0  0  0  0  0  0  0  0  0  0  0  0
   26.2987   -0.3467  -12.9104 Br  0  0  0  0  0  0  0  0  0  0  0  0
   21.8105   -1.4041  -11.1705 C   0  0  0  0  0  0  0  0  0  0  0  0
  1  2  3  0
  2  3  1  0
  3  4  2  0
  4  5  1  0
  5  6  1  0
  5  7  2  0
  7  8  1  0
  8  9  1  0
  9 10  1  0
 10 11  2  0
 11 12  1  0
 12 13  2  0
 13 14  1  0
 14 15  2  0
 14 16  1  0
 13 17  1  0
 17 18  2  0
 18 19  1  0
  8 20  2  0
 20  3  1  0
 18 10  1  0
M  END
$$$$
