_rank19
     RDKit          3D

 20 21  0  0  0  0  0  0  0  0999 V2000
   27.6088    1.2025   -6.3151 N   0  0  0  0  0  0  0  0  0  0  0  0
   27.4453    0.7297   -7.3580 C   0  0  0  0  0  0  0  0  0  0  0  0
   27.2514    0.1176   -8.6582 C   0  0  0  0  0  0  0  0  0  0  0  0
   28.1984   -0.8051   -9.1094 C   0  0  0  0  0  0  0  0  0  0  0  0
   28.0299   -1.3959  -10.3416 C   0  0  0  0  0  0  0  0  0  0  0  0
   28.9446   -2.2859  -10.7752 F   0  0  0  0  0  0  0  0  0  0  0  0
   26.9378   -1.0749  -11.1131 C   0  0  0  0  0  0  0  0  0  0  0  0
   25.9796   -0.1618  -10.6925 C   0  0  0  0  0  0  0  0  0  0  0  0
   24.8856    0.1517  -11.4793 O   0  0  0  0  0  0  0  0  0  0  0  0
   23.6828   -0.5236  -11.1924 C   0  0  0  0  0  0  0  0  0  0  0  0
   23.4800   -1.1064  -10.0010 N   0  0  0  0  0  0  0  0  0  0  0  0
   22.3450   -1.7507   -9.7131 C   0  0  0  0  0  0  0  0  0  0  0  0
   21.3073   -1.8587  -10.6224 C   0  0  0  0  0  0  0  0  0  0  0  0
   20.0727   -2.5608  -10.3062 C   0  0  0  0  0  0  0  0  0  0  0  0
   19.7070   -3.5679  -10.9254 O   0  0  0  0  0  0  0  0  0  0  0  0
   19.2856   -2.0767   -9.2731 O   0  0  0  0  0  0  0  0  0  0  0  0
   21.5165   -1.2619  -11.8408 C   0  0  0  0  0  0  0  0  0  0  0  0
   22.6828   -0.6024  -12.1305 C   0  0  0  0  0  0  0  0  0  0  0  0
   22.9611    0.2271  -13.8380 Br  0  0  0  0  0  0  0  0  0  0  0  0
   26.1659    0.4186   -9.4565 C   0  0  0  0  0  0  0  0  0  0  0  0
  1  2  3  0
  2  3  1  0
  3  4  2  0
  4  5  1  0
  5  6  1  0
  5  7  2  0
  7  8  1  0
  8  9  1  0
  9 10  1  0
 10 11  2  0
 11 12  1  0
 12 13  2  0
 13 14  1  0
 14 15  2  0
 14 16  1  0
 13 17  1  0
 17 18  2  0
 18 19  1  0
  8 20  2  0
 20  3  1  0
 18 10  1  0
M  END
$$$$
