_rank13
     RDKit          3D

 20 21  0  0  0  0  0  0  0  0999 V2000
   18.0581    1.3915   -9.2322 N   0  0  0  0  0  0  0  0  0  0  0  0
   18.9228    0.7621   -9.6727 C   0  0  0  0  0  0  0  0  0  0  0  0
   20.0181   -0.0073  -10.2307 C   0  0  0  0  0  0  0  0  0  0  0  0
   19.8525   -1.3852  -10.3906 C   0  0  0  0  0  0  0  0  0  0  0  0
   20.8822   -2.1310  -10.9188 C   0  0  0  0  0  0  0  0  0  0  0  0
   20.7206   -3.4604  -11.0723 F   0  0  0  0  0  0  0  0  0  0  0  0
   22.0578   -1.5173  -11.2824 C   0  0  0  0  0  0  0  0  0  0  0  0
   22.2529   -0.1501  -11.1358 C   0  0  0  0  0  0  0  0  0  0  0  0
   23.4412    0.4542  -11.5059 O   0  0  0  0  0  0  0  0  0  0  0  0
   24.5562    0.2234  -10.6760 C   0  0  0  0  0  0  0  0  0  0  0  0
   24.4173    0.0813   -9.3491 N   0  0  0  0  0  0  0  0  0  0  0  0
   25.4646   -0.1380   -8.5482 C   0  0  0  0  0  0  0  0  0  0  0  0
   26.7571   -0.2326   -9.0335 C   0  0  0  0  0  0  0  0  0  0  0  0
   27.8954   -0.4714   -8.1591 C   0  0  0  0  0  0  0  0  0  0  0  0
   29.0637   -0.3145   -8.5358 O   0  0  0  0  0  0  0  0  0  0  0  0
   27.6519   -0.8893   -6.8601 O   0  0  0  0  0  0  0  0  0  0  0  0
   26.8973   -0.0870  -10.3913 C   0  0  0  0  0  0  0  0  0  0  0  0
   25.8194    0.1378  -11.2080 C   0  0  0  0  0  0  0  0  0  0  0  0
   26.0306    0.3394  -13.1042 Br  0  0  0  0  0  0  0  0  0  0  0  0
   21.2106    0.5790  -10.6053 C   0  0  0  0  0  0  0  0  0  0  0  0
  1  2  3  0
  2  3  1  0
  3  4  2  0
  4  5  1  0
  5  6  1  0
  5  7  2  0
  7  8  1  0
  8  9  1  0
  9 10  1  0
 10 11  2  0
 11 12  1  0
 12 13  2  0
 13 14  1  0
 14 15  2  0
 14 16  1  0
 13 17  1  0
 17 18  2  0
 18 19  1  0
  8 20  2  0
 20  3  1  0
 18 10  1  0
M  END
$$$$
