_rank3
     RDKit          3D

 20 21  0  0  0  0  0  0  0  0999 V2000
   18.9338    1.8768   -8.8263 N   0  0  0  0  0  0  0  0  0  0  0  0
   19.5043    1.0478   -9.3964 C   0  0  0  0  0  0  0  0  0  0  0  0
   20.2021   -0.0066  -10.1067 C   0  0  0  0  0  0  0  0  0  0  0  0
   19.5523   -1.2293  -10.2926 C   0  0  0  0  0  0  0  0  0  0  0  0
   20.2000   -2.2413  -10.9648 C   0  0  0  0  0  0  0  0  0  0  0  0
   19.5716   -3.4203  -11.1433 F   0  0  0  0  0  0  0  0  0  0  0  0
   21.4732   -2.0415  -11.4445 C   0  0  0  0  0  0  0  0  0  0  0  0
   22.1453   -0.8379  -11.2757 C   0  0  0  0  0  0  0  0  0  0  0  0
   23.4263   -0.6509  -11.7638 O   0  0  0  0  0  0  0  0  0  0  0  0
   24.4450   -0.4483  -10.8118 C   0  0  0  0  0  0  0  0  0  0  0  0
   24.2522   -0.7358   -9.5155 N   0  0  0  0  0  0  0  0  0  0  0  0
   25.2081   -0.5494   -8.6002 C   0  0  0  0  0  0  0  0  0  0  0  0
   26.4560   -0.0491   -8.9285 C   0  0  0  0  0  0  0  0  0  0  0  0
   27.4948    0.1527   -7.9298 C   0  0  0  0  0  0  0  0  0  0  0  0
   27.4169   -0.3209   -6.7891 O   0  0  0  0  0  0  0  0  0  0  0  0
   28.6066    0.9034   -8.2781 O   0  0  0  0  0  0  0  0  0  0  0  0
   26.6515    0.2444  -10.2552 C   0  0  0  0  0  0  0  0  0  0  0  0
   25.6673    0.0512  -11.1896 C   0  0  0  0  0  0  0  0  0  0  0  0
   25.9550    0.4661  -13.0405 Br  0  0  0  0  0  0  0  0  0  0  0  0
   21.4802    0.1626  -10.6004 C   0  0  0  0  0  0  0  0  0  0  0  0
  1  2  3  0
  2  3  1  0
  3  4  2  0
  4  5  1  0
  5  6  1  0
  5  7  2  0
  7  8  1  0
  8  9  1  0
  9 10  1  0
 10 11  2  0
 11 12  1  0
 12 13  2  0
 13 14  1  0
 14 15  2  0
 14 16  1  0
 13 17  1  0
 17 18  2  0
 18 19  1  0
  8 20  2  0
 20  3  1  0
 18 10  1  0
M  END
$$$$
