_rank2
     RDKit          3D

 20 21  0  0  0  0  0  0  0  0999 V2000
   18.7633    2.4982   -9.1019 N   0  0  0  0  0  0  0  0  0  0  0  0
   19.2927    1.5608   -9.5249 C   0  0  0  0  0  0  0  0  0  0  0  0
   19.9583    0.3962  -10.0761 C   0  0  0  0  0  0  0  0  0  0  0  0
   19.2687   -0.8186  -10.0981 C   0  0  0  0  0  0  0  0  0  0  0  0
   19.8855   -1.9344  -10.6179 C   0  0  0  0  0  0  0  0  0  0  0  0
   19.2186   -3.1056  -10.6382 F   0  0  0  0  0  0  0  0  0  0  0  0
   21.1672   -1.8444  -11.1079 C   0  0  0  0  0  0  0  0  0  0  0  0
   21.8785   -0.6516  -11.1000 C   0  0  0  0  0  0  0  0  0  0  0  0
   23.1677   -0.5757  -11.5966 O   0  0  0  0  0  0  0  0  0  0  0  0
   24.1963   -0.3505  -10.6605 C   0  0  0  0  0  0  0  0  0  0  0  0
   23.9971   -0.5471   -9.3482 N   0  0  0  0  0  0  0  0  0  0  0  0
   24.9622   -0.3381   -8.4476 C   0  0  0  0  0  0  0  0  0  0  0  0
   26.2267    0.0935   -8.8083 C   0  0  0  0  0  0  0  0  0  0  0  0
   27.2754    0.3202   -7.8254 C   0  0  0  0  0  0  0  0  0  0  0  0
   27.1188    0.0760   -6.6224 O   0  0  0  0  0  0  0  0  0  0  0  0
   28.4890    0.8278   -8.2621 O   0  0  0  0  0  0  0  0  0  0  0  0
   26.4286    0.2941  -10.1512 C   0  0  0  0  0  0  0  0  0  0  0  0
   25.4350    0.0781  -11.0705 C   0  0  0  0  0  0  0  0  0  0  0  0
   25.7319    0.3627  -12.9445 Br  0  0  0  0  0  0  0  0  0  0  0  0
   21.2440    0.4537  -10.5758 C   0  0  0  0  0  0  0  0  0  0  0  0
  1  2  3  0
  2  3  1  0
  3  4  2  0
  4  5  1  0
  5  6  1  0
  5  7  2  0
  7  8  1  0
  8  9  1  0
  9 10  1  0
 10 11  2  0
 11 12  1  0
 12 13  2  0
 13 14  1  0
 14 15  2  0
 14 16  1  0
 13 17  1  0
 17 18  2  0
 18 19  1  0
  8 20  2  0
 20  3  1  0
 18 10  1  0
M  END
$$$$
