_rank16
     RDKit          3D

 20 21  0  0  0  0  0  0  0  0999 V2000
   19.0686    2.0101   -8.8425 N   0  0  0  0  0  0  0  0  0  0  0  0
   19.6076    1.1111   -9.3314 C   0  0  0  0  0  0  0  0  0  0  0  0
   20.2951   -0.0011   -9.9584 C   0  0  0  0  0  0  0  0  0  0  0  0
   19.6111   -1.2102  -10.1074 C   0  0  0  0  0  0  0  0  0  0  0  0
   20.2486   -2.2766  -10.7005 C   0  0  0  0  0  0  0  0  0  0  0  0
   19.5871   -3.4423  -10.8434 F   0  0  0  0  0  0  0  0  0  0  0  0
   21.5452   -2.1437  -11.1387 C   0  0  0  0  0  0  0  0  0  0  0  0
   22.2516   -0.9554  -11.0050 C   0  0  0  0  0  0  0  0  0  0  0  0
   23.5560   -0.8360  -11.4505 O   0  0  0  0  0  0  0  0  0  0  0  0
   24.5280   -0.5022  -10.4868 C   0  0  0  0  0  0  0  0  0  0  0  0
   24.5655    0.7187   -9.9314 N   0  0  0  0  0  0  0  0  0  0  0  0
   25.4808    1.0511   -9.0160 C   0  0  0  0  0  0  0  0  0  0  0  0
   26.4473    0.1606   -8.5822 C   0  0  0  0  0  0  0  0  0  0  0  0
   27.4426    0.5255   -7.5855 C   0  0  0  0  0  0  0  0  0  0  0  0
   27.6296    1.6976   -7.2354 O   0  0  0  0  0  0  0  0  0  0  0  0
   28.2029   -0.4827   -7.0140 O   0  0  0  0  0  0  0  0  0  0  0  0
   26.4074   -1.0879   -9.1515 C   0  0  0  0  0  0  0  0  0  0  0  0
   25.4662   -1.4233  -10.0900 C   0  0  0  0  0  0  0  0  0  0  0  0
   25.4227   -3.1725  -10.8771 Br  0  0  0  0  0  0  0  0  0  0  0  0
   21.5962    0.1002  -10.4088 C   0  0  0  0  0  0  0  0  0  0  0  0
  1  2  3  0
  2  3  1  0
  3  4  2  0
  4  5  1  0
  5  6  1  0
  5  7  2  0
  7  8  1  0
  8  9  1  0
  9 10  1  0
 10 11  2  0
 11 12  1  0
 12 13  2  0
 13 14  1  0
 14 15  2  0
 14 16  1  0
 13 17  1  0
 17 18  2  0
 18 19  1  0
  8 20  2  0
 20  3  1  0
 18 10  1  0
M  END
$$$$
