_rank18
     RDKit          3D

 20 21  0  0  0  0  0  0  0  0999 V2000
   19.5634   -1.5187   -7.8131 N   0  0  0  0  0  0  0  0  0  0  0  0
   20.1539   -1.5985   -8.8044 C   0  0  0  0  0  0  0  0  0  0  0  0
   20.8741   -1.6960  -10.0593 C   0  0  0  0  0  0  0  0  0  0  0  0
   20.4676   -2.6560  -10.9893 C   0  0  0  0  0  0  0  0  0  0  0  0
   21.1402   -2.7624  -12.1859 C   0  0  0  0  0  0  0  0  0  0  0  0
   20.7466   -3.6892  -13.0820 F   0  0  0  0  0  0  0  0  0  0  0  0
   22.1999   -1.9281  -12.4541 C   0  0  0  0  0  0  0  0  0  0  0  0
   22.6277   -0.9642  -11.5503 C   0  0  0  0  0  0  0  0  0  0  0  0
   23.6956   -0.1314  -11.8334 O   0  0  0  0  0  0  0  0  0  0  0  0
   24.8192   -0.2304  -10.9890 C   0  0  0  0  0  0  0  0  0  0  0  0
   24.7204   -0.7593   -9.7599 N   0  0  0  0  0  0  0  0  0  0  0  0
   25.7763   -0.8604   -8.9468 C   0  0  0  0  0  0  0  0  0  0  0  0
   27.0372   -0.4273   -9.3182 C   0  0  0  0  0  0  0  0  0  0  0  0
   28.1849   -0.5386   -8.4307 C   0  0  0  0  0  0  0  0  0  0  0  0
   28.1170   -1.0959   -7.3279 O   0  0  0  0  0  0  0  0  0  0  0  0
   29.3924    0.0018   -8.8444 O   0  0  0  0  0  0  0  0  0  0  0  0
   27.1363    0.1136  -10.5760 C   0  0  0  0  0  0  0  0  0  0  0  0
   26.0498    0.2147  -11.4057 C   0  0  0  0  0  0  0  0  0  0  0  0
   26.2035    0.9731  -13.1613 Br  0  0  0  0  0  0  0  0  0  0  0  0
   21.9417   -0.8734  -10.3585 C   0  0  0  0  0  0  0  0  0  0  0  0
  1  2  3  0
  2  3  1  0
  3  4  2  0
  4  5  1  0
  5  6  1  0
  5  7  2  0
  7  8  1  0
  8  9  1  0
  9 10  1  0
 10 11  2  0
 11 12  1  0
 12 13  2  0
 13 14  1  0
 14 15  2  0
 14 16  1  0
 13 17  1  0
 17 18  2  0
 18 19  1  0
  8 20  2  0
 20  3  1  0
 18 10  1  0
M  END
$$$$
