REMARK  Name = 
REMARK  7 active torsions:
REMARK  status: ('A' for Active; 'I' for Inactive)
REMARK    1  A    between atoms: C_1  and  C_2
REMARK    2  A    between atoms: C_6  and  C_7
REMARK    3  A    between atoms: C_7  and  N_8
REMARK    4  A    between atoms: N_8  and  S_9
REMARK    5  A    between atoms: S_9  and  C_12
REMARK    6  A    between atoms: C_12  and  C_13
REMARK    7  A    between atoms: C_19  and  C_20
REMARK                            x       y       z     vdW  Elec       q    Type
REMARK                         _______ _______ _______ _____ _____    ______ ____
ROOT
ATOM      1  N   UNL     1      24.516   0.918 -10.929  0.00  0.00    -0.184 NA
ATOM      2  H   UNL     1      24.005   1.644 -11.476  0.00  0.00    +0.149 HD
ENDROOT
BRANCH   1   3
ATOM      3  C   UNL     1      25.894   0.718 -11.453  0.00  0.00    +0.064 C 
ATOM      4  C   UNL     1      25.797  -0.460 -12.456  0.00  0.00    +0.028 C 
ATOM      5  C   UNL     1      26.675  -0.129 -13.664  0.00  0.00    +0.002 C 
ATOM      6  C   UNL     1      27.245   1.260 -13.428  0.00  0.00    +0.002 C 
ATOM      7  C   UNL     1      26.394   1.881 -12.334  0.00  0.00    +0.028 C 
BRANCH   3  13
ATOM      8  C   UNL     1      27.778  -2.385  -7.868  0.00  0.00    +0.044 C 
ATOM      9  C   UNL     1      27.840  -1.080  -8.608  0.00  0.00    -0.050 A 
ATOM     10  C   UNL     1      28.839  -0.143  -8.318  0.00  0.00    +0.003 A 
ATOM     11  C   UNL     1      28.889   1.059  -9.018  0.00  0.00    +0.001 A 
ATOM     12  C   UNL     1      27.942   1.342 -10.006  0.00  0.00    +0.005 A 
ATOM     13  C   UNL     1      26.911   0.427 -10.316  0.00  0.00    -0.026 A 
ATOM     14  C   UNL     1      26.902  -0.805  -9.616  0.00  0.00    +0.009 A 
ENDBRANCH   3  13
ENDBRANCH   1   3
BRANCH   1  15
ATOM     15  S   UNL     1      23.481  -0.467 -10.645  0.00  0.00    +0.034 S 
ATOM     16  O   UNL     1      24.148  -1.528  -9.812  0.00  0.00    -0.158 OA
ATOM     17  O   UNL     1      23.105  -1.068 -11.969  0.00  0.00    -0.158 OA
BRANCH  15  18
ATOM     18  C   UNL     1      22.001   0.107  -9.826  0.00  0.00    +0.221 C 
BRANCH  18  19
ATOM     19  C   UNL     1      20.791  -0.675 -10.282  0.00  0.00    -0.007 A 
ATOM     20  C   UNL     1      20.931  -2.046 -10.561  0.00  0.00    +0.009 A 
ATOM     21  C   UNL     1      19.834  -2.798 -11.003  0.00  0.00    +0.039 A 
ATOM     22  C   UNL     1      18.591  -2.189 -11.180  0.00  0.00    +0.125 A 
ATOM     23  F   UNL     1      17.534  -2.924 -11.596  0.00  0.00    -0.205 F 
ATOM     24  C   UNL     1      18.439  -0.827 -10.919  0.00  0.00    +0.057 A 
ATOM     25  C   UNL     1      19.528  -0.062 -10.472  0.00  0.00    +0.059 A 
BRANCH  25  26
ATOM     26  C   UNL     1      19.322   1.341 -10.207  0.00  0.00    +0.100 C 
ATOM     27  N   UNL     1      19.156   2.464  -9.993  0.00  0.00    -0.191 NA
ENDBRANCH  25  26
ENDBRANCH  18  19
ENDBRANCH  15  18
ENDBRANCH   1  15
TORSDOF 6
