REMARK  Name = 
REMARK  8 active torsions:
REMARK  status: ('A' for Active; 'I' for Inactive)
REMARK    1  A    between atoms: C_1  and  C_2
REMARK    2  A    between atoms: C_2  and  N_3
REMARK    3  A    between atoms: C_2  and  C_17
REMARK    4  A    between atoms: N_3  and  S_4
REMARK    5  A    between atoms: S_4  and  C_7
REMARK    6  A    between atoms: C_7  and  C_8
REMARK    7  A    between atoms: C_14  and  C_15
REMARK    8  A    between atoms: C_17  and  C_18
REMARK                            x       y       z     vdW  Elec       q    Type
REMARK                         _______ _______ _______ _____ _____    ______ ____
ROOT
ATOM      1  N   UNL     1      24.342  -0.200  -8.964  0.00  0.00    -0.191 NA
ATOM      2  H   UNL     1      24.341   0.829  -9.140  0.00  0.00    +0.148 HD
ENDROOT
BRANCH   1   3
ATOM      3  S   UNL     1      23.238  -0.880 -10.128  0.00  0.00    +0.034 S 
ATOM      4  O   UNL     1      23.862  -0.893 -11.495  0.00  0.00    -0.158 OA
ATOM      5  O   UNL     1      22.920  -2.292  -9.725  0.00  0.00    -0.158 OA
BRANCH   3   6
ATOM      6  C   UNL     1      21.723   0.069 -10.157  0.00  0.00    +0.221 C 
BRANCH   6   7
ATOM      7  C   UNL     1      20.572  -0.785 -10.627  0.00  0.00    -0.007 A 
ATOM      8  C   UNL     1      20.842  -1.931 -11.395  0.00  0.00    +0.009 A 
ATOM      9  C   UNL     1      19.799  -2.729 -11.871  0.00  0.00    +0.039 A 
ATOM     10  C   UNL     1      18.474  -2.388 -11.595  0.00  0.00    +0.125 A 
ATOM     11  F   UNL     1      17.463  -3.163 -12.061  0.00  0.00    -0.205 F 
ATOM     12  C   UNL     1      18.187  -1.244 -10.845  0.00  0.00    +0.057 A 
ATOM     13  C   UNL     1      19.226  -0.436 -10.361  0.00  0.00    +0.059 A 
BRANCH  13  14
ATOM     14  C   UNL     1      18.887   0.746  -9.604  0.00  0.00    +0.100 C 
ATOM     15  N   UNL     1      18.617   1.694  -8.998  0.00  0.00    -0.191 NA
ENDBRANCH  13  14
ENDBRANCH   6   7
ENDBRANCH   3   6
ENDBRANCH   1   3
BRANCH   1  17
ATOM     16  C   UNL     1      26.145  -1.259  -7.690  0.00  0.00    +0.026 C 
ATOM     17  C   UNL     1      25.700  -0.783  -9.085  0.00  0.00    +0.084 C 
BRANCH  17  18
ATOM     18  C   UNL     1      26.758   0.219  -9.710  0.00  0.00    +0.012 C 
ATOM     19  C   UNL     1      28.201  -0.295  -9.433  0.00  0.00    +0.013 C 
ATOM     20  C   UNL     1      29.047   0.942  -9.209  0.00  0.00    +0.001 C 
ATOM     21  C   UNL     1      28.123   1.909  -8.496  0.00  0.00    +0.001 C 
ATOM     22  C   UNL     1      26.718   1.615  -9.017  0.00  0.00    +0.013 C 
BRANCH  18  23
ATOM     23  C   UNL     1      26.456   0.447 -11.218  0.00  0.00    -0.040 A 
ATOM     24  C   UNL     1      25.586   1.499 -11.595  0.00  0.00    +0.004 A 
ATOM     25  C   UNL     1      25.290   1.751 -12.937  0.00  0.00    +0.000 A 
ATOM     26  C   UNL     1      25.874   0.980 -13.939  0.00  0.00    +0.000 A 
ATOM     27  C   UNL     1      26.770  -0.031 -13.602  0.00  0.00    +0.000 A 
ATOM     28  C   UNL     1      27.073  -0.290 -12.262  0.00  0.00    +0.004 A 
ENDBRANCH  18  23
ENDBRANCH  17  18
ENDBRANCH   1  17
TORSDOF 7
