REMARK  Name = 
REMARK  8 active torsions:
REMARK  status: ('A' for Active; 'I' for Inactive)
REMARK    1  A    between atoms: C_1  and  S_2
REMARK    2  A    between atoms: S_2  and  C_5
REMARK    3  A    between atoms: C_10  and  C_11
REMARK    4  A    between atoms: C_11  and  C_12
REMARK    5  A    between atoms: C_12  and  N_13
REMARK    6  A    between atoms: N_13  and  S_14
REMARK    7  A    between atoms: S_14  and  C_17
REMARK    8  A    between atoms: C_19  and  C_20
REMARK                            x       y       z     vdW  Elec       q    Type
REMARK                         _______ _______ _______ _____ _____    ______ ____
ROOT
ATOM      1  N   UNL     1      23.125  -2.021  -9.467  0.00  0.00    -0.194 NA
ATOM      2  H   UNL     1      22.499  -2.307  -8.680  0.00  0.00    +0.148 HD
ENDROOT
BRANCH   1   3
ATOM      3  S   UNL     1      22.077  -1.380 -10.698  0.00  0.00    +0.033 S 
ATOM      4  O   UNL     1      22.842  -1.255 -11.986  0.00  0.00    -0.158 OA
ATOM      5  O   UNL     1      21.634  -0.011 -10.264  0.00  0.00    -0.158 OA
BRANCH   3   6
ATOM      6  C   UNL     1      20.665  -2.475 -10.967  0.00  0.00    +0.156 C 
ATOM      7  C   UNL     1      19.869  -2.769  -9.704  0.00  0.00    +0.038 C 
ATOM      8  C   UNL     1      19.236  -1.936 -10.820  0.00  0.00    +0.047 C 
BRANCH   8   9
ATOM      9  C   UNL     1      19.051  -0.466 -10.547  0.00  0.00    -0.040 A 
ATOM     10  C   UNL     1      19.249   0.488 -11.561  0.00  0.00    +0.004 A 
ATOM     11  C   UNL     1      19.128   1.851 -11.278  0.00  0.00    +0.003 A 
ATOM     12  C   UNL     1      18.837   2.274  -9.977  0.00  0.00    +0.038 A 
ATOM     13  C   UNL     1      18.675   1.334  -8.955  0.00  0.00    +0.124 A 
ATOM     14  F   UNL     1      18.411   1.745  -7.689  0.00  0.00    -0.205 F 
ATOM     15  C   UNL     1      18.794  -0.031  -9.235  0.00  0.00    +0.042 A 
ENDBRANCH   8   9
ENDBRANCH   3   6
ENDBRANCH   1   3
BRANCH   1  16
ATOM     16  C   UNL     1      24.024  -0.975  -8.972  0.00  0.00    +0.110 C 
BRANCH  16  17
ATOM     17  C   UNL     1      25.299  -0.927  -9.825  0.00  0.00    +0.054 C 
BRANCH  17  23
ATOM     18  C   UNL     1      26.094   1.497 -10.217  0.00  0.00    +0.091 A 
ATOM     19  C   UNL     1      26.873   2.587  -9.787  0.00  0.00    +0.027 A 
ATOM     20  C   UNL     1      27.659   2.494  -8.638  0.00  0.00    +0.002 A 
ATOM     21  C   UNL     1      27.687   1.312  -7.903  0.00  0.00    +0.000 A 
ATOM     22  C   UNL     1      26.928   0.216  -8.314  0.00  0.00    +0.005 A 
ATOM     23  C   UNL     1      26.131   0.286  -9.471  0.00  0.00    -0.021 A 
BRANCH  18  25
ATOM     24  C   UNL     1      25.961   1.056 -13.146  0.00  0.00    +0.200 C 
ATOM     25  S   UNL     1      25.122   1.665 -11.696  0.00  0.00    -0.006 S 
ATOM     26  O   UNL     1      23.845   0.889 -11.536  0.00  0.00    -0.170 OA
ATOM     27  O   UNL     1      24.803   3.115 -11.931  0.00  0.00    -0.170 OA
ENDBRANCH  18  25
ENDBRANCH  17  23
ENDBRANCH  16  17
ENDBRANCH   1  16
TORSDOF 7
