REMARK  Name = 
REMARK  7 active torsions:
REMARK  status: ('A' for Active; 'I' for Inactive)
REMARK    1  A    between atoms: S_2  and  N_4
REMARK    2  A    between atoms: S_2  and  C_20
REMARK    3  A    between atoms: N_4  and  C_5
REMARK    4  A    between atoms: C_5  and  C_6
REMARK    5  A    between atoms: C_11  and  O_12
REMARK    6  A    between atoms: O_12  and  C_13
REMARK    7  A    between atoms: C_22  and  C_23
REMARK                            x       y       z     vdW  Elec       q    Type
REMARK                         _______ _______ _______ _____ _____    ______ ____
ROOT
ATOM      1  N   UNL     1      23.193  -1.176 -11.891  0.00  0.00    -0.190 NA
ATOM      2  H   UNL     1      22.596  -1.396 -12.722  0.00  0.00    +0.148 HD
ENDROOT
BRANCH   1   4
ATOM      3  O   UNL     1      23.013  -2.062  -9.398  0.00  0.00    -0.158 OA
ATOM      4  S   UNL     1      22.194  -1.426 -10.490  0.00  0.00    +0.033 S 
ATOM      5  O   UNL     1      21.706  -0.088 -10.014  0.00  0.00    -0.158 OA
BRANCH   4   6
ATOM      6  C   UNL     1      20.767  -2.432 -10.936  0.00  0.00    +0.156 C 
ATOM      7  C   UNL     1      19.849  -2.753  -9.764  0.00  0.00    +0.038 C 
ATOM      8  C   UNL     1      19.359  -1.824 -10.874  0.00  0.00    +0.047 C 
BRANCH   8   9
ATOM      9  C   UNL     1      19.226  -0.366 -10.515  0.00  0.00    -0.040 A 
ATOM     10  C   UNL     1      19.302   0.605 -11.526  0.00  0.00    +0.004 A 
ATOM     11  C   UNL     1      19.135   1.958 -11.218  0.00  0.00    +0.003 A 
ATOM     12  C   UNL     1      18.861   2.350  -9.905  0.00  0.00    +0.038 A 
ATOM     13  C   UNL     1      18.742   1.387  -8.899  0.00  0.00    +0.124 A 
ATOM     14  F   UNL     1      18.455   1.766  -7.629  0.00  0.00    -0.205 F 
ATOM     15  C   UNL     1      18.910   0.032  -9.203  0.00  0.00    +0.042 A 
ENDBRANCH   8   9
ENDBRANCH   4   6
ENDBRANCH   1   4
BRANCH   1  16
ATOM     16  C   UNL     1      23.594   0.230 -11.973  0.00  0.00    +0.144 C 
BRANCH  16  17
ATOM     17  C   UNL     1      25.004   0.327 -12.496  0.00  0.00    +0.010 A 
ATOM     18  C   UNL     1      25.252   0.989 -13.711  0.00  0.00    +0.008 A 
ATOM     19  C   UNL     1      26.557   1.119 -14.192  0.00  0.00    +0.001 A 
ATOM     20  C   UNL     1      27.626   0.597 -13.464  0.00  0.00    +0.004 A 
ATOM     21  C   UNL     1      27.396  -0.047 -12.246  0.00  0.00    +0.046 A 
ATOM     22  C   UNL     1      26.088  -0.169 -11.742  0.00  0.00    +0.133 A 
BRANCH  22  23
ATOM     23  O   UNL     1      25.839  -0.815 -10.521  0.00  0.00    -0.456 OA
BRANCH  23  24
ATOM     24  C   UNL     1      26.619  -0.689  -9.362  0.00  0.00    +0.131 A 
ATOM     25  C   UNL     1      26.971   0.567  -8.832  0.00  0.00    +0.046 A 
ATOM     26  C   UNL     1      27.735   0.648  -7.664  0.00  0.00    +0.006 A 
ATOM     27  C   UNL     1      28.143  -0.518  -7.011  0.00  0.00    +0.038 A 
ATOM     28  C   UNL     1      27.782  -1.768  -7.522  0.00  0.00    +0.127 A 
ATOM     29  F   UNL     1      28.170  -2.899  -6.884  0.00  0.00    -0.205 F 
ATOM     30  C   UNL     1      27.017  -1.852  -8.690  0.00  0.00    +0.084 A 
ENDBRANCH  23  24
ENDBRANCH  22  23
ENDBRANCH  16  17
ENDBRANCH   1  16
TORSDOF 7
