REMARK  Name = 
REMARK  10 active torsions:
REMARK  status: ('A' for Active; 'I' for Inactive)
REMARK    1  A    between atoms: C_1  and  C_2
REMARK    2  A    between atoms: C_2  and  N_3
REMARK    3  A    between atoms: C_2  and  C_24
REMARK    4  A    between atoms: N_3  and  C_4
REMARK    5  A    between atoms: C_4  and  C_5
REMARK    6  A    between atoms: C_5  and  N_6
REMARK    7  A    between atoms: N_6  and  S_7
REMARK    8  A    between atoms: S_7  and  C_10
REMARK    9  A    between atoms: C_10  and  C_11
REMARK   10  A    between atoms: C_17  and  C_18
REMARK                            x       y       z     vdW  Elec       q    Type
REMARK                         _______ _______ _______ _____ _____    ______ ____
ROOT
ATOM      1  C   UNL     1      24.744  -0.894  -7.992  0.00  0.00    +0.127 C 
ENDROOT
BRANCH   1   2
ATOM      2  C   UNL     1      26.079  -0.229  -8.451  0.00  0.00    +0.034 C 
ATOM      3  C   UNL     1      26.839  -1.188  -9.393  0.00  0.00    +0.023 C 
ATOM      4  C   UNL     1      27.811  -1.983  -8.530  0.00  0.00    +0.002 C 
ATOM      5  C   UNL     1      28.005  -1.197  -7.238  0.00  0.00    +0.002 C 
ATOM      6  C   UNL     1      27.056  -0.003  -7.279  0.00  0.00    +0.023 C 
BRANCH   2   7
ATOM      7  N   UNL     1      25.790   1.039  -9.172  0.00  0.00    -0.303 NA
ATOM      8  H   UNL     1      24.903   0.931  -9.719  0.00  0.00    +0.123 HD
BRANCH   7  10
ATOM      9  C   UNL     1      27.126   3.017  -9.770  0.00  0.00    +0.029 C 
ATOM     10  C   UNL     1      26.879   1.531 -10.052  0.00  0.00    +0.081 C 
BRANCH  10  11
ATOM     11  C   UNL     1      26.555   1.315 -11.523  0.00  0.00    -0.031 A 
ATOM     12  C   UNL     1      27.448   0.627 -12.368  0.00  0.00    +0.005 A 
ATOM     13  C   UNL     1      27.144   0.445 -13.721  0.00  0.00    +0.000 A 
ATOM     14  C   UNL     1      25.953   0.950 -14.245  0.00  0.00    +0.000 A 
ATOM     15  C   UNL     1      25.064   1.641 -13.420  0.00  0.00    +0.000 A 
ATOM     16  C   UNL     1      25.362   1.825 -12.066  0.00  0.00    +0.005 A 
ENDBRANCH  10  11
ENDBRANCH   7  10
ENDBRANCH   2   7
ENDBRANCH   1   2
BRANCH   1  17
ATOM     17  N   UNL     1      23.570  -0.219  -8.559  0.00  0.00    -0.192 NA
ATOM     18  H   UNL     1      23.808   0.790  -8.695  0.00  0.00    +0.148 HD
BRANCH  17  19
ATOM     19  S   UNL     1      23.211  -0.864 -10.132  0.00  0.00    +0.034 S 
ATOM     20  O   UNL     1      22.785  -2.303 -10.018  0.00  0.00    -0.158 OA
ATOM     21  O   UNL     1      24.442  -0.785 -10.991  0.00  0.00    -0.158 OA
BRANCH  19  22
ATOM     22  C   UNL     1      21.915   0.110 -10.886  0.00  0.00    +0.221 C 
BRANCH  22  23
ATOM     23  C   UNL     1      20.680  -0.729 -11.103  0.00  0.00    -0.007 A 
ATOM     24  C   UNL     1      20.805  -1.973 -11.746  0.00  0.00    +0.009 A 
ATOM     25  C   UNL     1      19.687  -2.787 -11.940  0.00  0.00    +0.039 A 
ATOM     26  C   UNL     1      18.433  -2.374 -11.487  0.00  0.00    +0.125 A 
ATOM     27  F   UNL     1      17.350  -3.167 -11.676  0.00  0.00    -0.205 F 
ATOM     28  C   UNL     1      18.293  -1.147 -10.834  0.00  0.00    +0.057 A 
ATOM     29  C   UNL     1      19.408  -0.322 -10.632  0.00  0.00    +0.059 A 
BRANCH  29  30
ATOM     30  C   UNL     1      19.225   0.932  -9.940  0.00  0.00    +0.100 C 
ATOM     31  N   UNL     1      19.080   1.937  -9.386  0.00  0.00    -0.191 NA
ENDBRANCH  29  30
ENDBRANCH  22  23
ENDBRANCH  19  22
ENDBRANCH  17  19
ENDBRANCH   1  17
TORSDOF 9
