REMARK  Name = 
REMARK  9 active torsions:
REMARK  status: ('A' for Active; 'I' for Inactive)
REMARK    1  A    between atoms: C_1  and  C_2
REMARK    2  A    between atoms: N_5  and  C_6
REMARK    3  A    between atoms: C_6  and  C_7
REMARK    4  A    between atoms: C_6  and  C_22
REMARK    5  A    between atoms: C_7  and  N_8
REMARK    6  A    between atoms: N_8  and  S_9
REMARK    7  A    between atoms: S_9  and  C_12
REMARK    8  A    between atoms: C_17  and  S_18
REMARK    9  A    between atoms: S_18  and  C_19
REMARK                            x       y       z     vdW  Elec       q    Type
REMARK                         _______ _______ _______ _____ _____    ______ ____
ROOT
ATOM      1  C   UNL     1      23.723  -0.494  -8.994  0.00  0.00    +0.129 C 
ENDROOT
BRANCH   1   2
ATOM      2  N   UNL     1      22.615   0.155  -9.705  0.00  0.00    -0.188 NA
ATOM      3  H   UNL     1      22.880   1.127  -9.971  0.00  0.00    +0.148 HD
BRANCH   2   4
ATOM      4  S   UNL     1      22.237  -0.710 -11.168  0.00  0.00    +0.060 S 
ATOM      5  O   UNL     1      23.200  -1.856 -11.306  0.00  0.00    -0.153 OA
ATOM      6  O   UNL     1      22.443   0.241 -12.311  0.00  0.00    -0.153 OA
BRANCH   4   7
ATOM      7  C   UNL     1      20.579  -1.364 -11.155  0.00  0.00    +0.130 A 
ATOM      8  C   UNL     1      20.408  -2.712 -11.523  0.00  0.00    +0.030 A 
ATOM      9  C   UNL     1      19.150  -3.310 -11.509  0.00  0.00    +0.002 A 
ATOM     10  C   UNL     1      18.031  -2.568 -11.149  0.00  0.00    +0.002 A 
ATOM     11  C   UNL     1      18.164  -1.220 -10.826  0.00  0.00    +0.029 A 
ATOM     12  C   UNL     1      19.422  -0.588 -10.841  0.00  0.00    +0.114 A 
BRANCH  12  13
ATOM     13  S   UNL     1      19.457   1.159 -10.515  0.00  0.00    -0.004 S 
ATOM     14  C   UNL     1      18.747   1.544  -8.926  0.00  0.00    +0.200 C 
ATOM     15  O   UNL     1      20.884   1.634 -10.480  0.00  0.00    -0.170 OA
ATOM     16  O   UNL     1      18.748   1.906 -11.609  0.00  0.00    -0.170 OA
ENDBRANCH  12  13
ENDBRANCH   4   7
ENDBRANCH   2   4
ENDBRANCH   1   2
BRANCH   1  17
ATOM     17  C   UNL     1      25.013   0.371  -9.059  0.00  0.00    +0.102 C 
BRANCH  17  22
ATOM     18  C   UNL     1      24.605   1.392 -13.459  0.00  0.00    +0.007 C 
ATOM     19  C   UNL     1      26.088   1.355 -13.055  0.00  0.00    -0.012 C 
ATOM     20  C   UNL     1      26.507  -0.053 -12.588  0.00  0.00    +0.018 C 
ATOM     21  C   UNL     1      25.851  -0.446 -11.246  0.00  0.00    +0.085 C 
ATOM     22  N   UNL     1      25.465   0.731 -10.434  0.00  0.00    -0.294 NA
ATOM     23  C   UNL     1      26.437   1.838 -10.548  0.00  0.00    +0.085 C 
ATOM     24  C   UNL     1      26.413   2.416 -11.975  0.00  0.00    +0.018 C 
ENDBRANCH  17  22
BRANCH  17  25
ATOM     25  C   UNL     1      26.138  -0.275  -8.258  0.00  0.00    -0.029 A 
ATOM     26  C   UNL     1      27.110   0.553  -7.659  0.00  0.00    +0.005 A 
ATOM     27  C   UNL     1      28.152   0.003  -6.908  0.00  0.00    +0.000 A 
ATOM     28  C   UNL     1      28.244  -1.380  -6.744  0.00  0.00    +0.000 A 
ATOM     29  C   UNL     1      27.296  -2.216  -7.336  0.00  0.00    +0.000 A 
ATOM     30  C   UNL     1      26.250  -1.672  -8.088  0.00  0.00    +0.005 A 
ENDBRANCH  17  25
ENDBRANCH   1  17
TORSDOF 7
