REMARK  Name = 
REMARK  8 active torsions:
REMARK  status: ('A' for Active; 'I' for Inactive)
REMARK    1  A    between atoms: C_1  and  C_2
REMARK    2  A    between atoms: C_8  and  C_9
REMARK    3  A    between atoms: C_9  and  S_10
REMARK    4  A    between atoms: S_10  and  N_13
REMARK    5  A    between atoms: C_14  and  C_16
REMARK    6  A    between atoms: C_16  and  C_17
REMARK    7  A    between atoms: C_22  and  S_23
REMARK    8  A    between atoms: S_23  and  C_24
REMARK                            x       y       z     vdW  Elec       q    Type
REMARK                         _______ _______ _______ _____ _____    ______ ____
ROOT
ATOM      1  N   UNL     1      24.056   0.818 -11.445  0.00  0.00    -0.189 N 
ATOM      2  C   UNL     1      23.137  -0.262 -11.253  0.00  0.00    +0.236 C 
ATOM      3  O   UNL     1      23.213  -1.294 -11.975  0.00  0.00    -0.274 OA
ATOM      4  H   UNL     1      24.043   1.637 -10.796  0.00  0.00    +0.176 HD
ENDROOT
BRANCH   1   5
ATOM      5  S   UNL     1      25.151   0.853 -12.787  0.00  0.00    +0.049 S 
ATOM      6  O   UNL     1      25.589  -0.550 -13.100  0.00  0.00    -0.155 OA
ATOM      7  O   UNL     1      24.452   1.425 -13.990  0.00  0.00    -0.155 OA
BRANCH   5   8
ATOM      8  C   UNL     1      26.571   1.851 -12.365  0.00  0.00    +0.224 C 
BRANCH   8  16
ATOM      9  C   UNL     1      27.476  -0.562 -10.781  0.00  0.00    +0.044 C 
ATOM     10  C   UNL     1      27.216   0.770 -10.126  0.00  0.00    -0.043 A 
ATOM     11  C   UNL     1      27.383   0.888  -8.734  0.00  0.00    +0.042 A 
ATOM     12  C   UNL     1      27.139   2.102  -8.088  0.00  0.00    +0.124 A 
ATOM     13  F   UNL     1      27.312   2.202  -6.747  0.00  0.00    -0.205 F 
ATOM     14  C   UNL     1      26.717   3.211  -8.820  0.00  0.00    +0.038 A 
ATOM     15  C   UNL     1      26.532   3.110 -10.199  0.00  0.00    +0.008 A 
ATOM     16  C   UNL     1      26.767   1.894 -10.868  0.00  0.00    -0.022 A 
ENDBRANCH   8  16
ENDBRANCH   5   8
ENDBRANCH   1   5
BRANCH   2  17
ATOM     17  C   UNL     1      22.112  -0.195 -10.157  0.00  0.00    +0.134 C 
BRANCH  17  18
ATOM     18  C   UNL     1      20.863  -0.965 -10.528  0.00  0.00    -0.014 A 
ATOM     19  C   UNL     1      20.994  -2.339 -10.806  0.00  0.00    +0.006 A 
ATOM     20  C   UNL     1      19.889  -3.100 -11.184  0.00  0.00    +0.000 A 
ATOM     21  C   UNL     1      18.636  -2.503 -11.296  0.00  0.00    +0.002 A 
ATOM     22  C   UNL     1      18.484  -1.140 -11.035  0.00  0.00    +0.027 A 
ATOM     23  C   UNL     1      19.585  -0.352 -10.655  0.00  0.00    +0.091 A 
BRANCH  23  24
ATOM     24  S   UNL     1      19.337   1.379 -10.335  0.00  0.00    -0.006 S 
ATOM     25  C   UNL     1      18.706   1.691  -8.697  0.00  0.00    +0.200 C 
ATOM     26  O   UNL     1      20.645   2.105 -10.475  0.00  0.00    -0.170 OA
ATOM     27  O   UNL     1      18.346   1.937 -11.317  0.00  0.00    -0.170 OA
ENDBRANCH  23  24
ENDBRANCH  17  18
ENDBRANCH   2  17
TORSDOF 6
