REMARK  Name = 
REMARK  9 active torsions:
REMARK  status: ('A' for Active; 'I' for Inactive)
REMARK    1  A    between atoms: C_1  and  C_2
REMARK    2  A    between atoms: C_5  and  C_6
REMARK    3  A    between atoms: C_6  and  C_7
REMARK    4  A    between atoms: C_7  and  N_8
REMARK    5  A    between atoms: N_8  and  S_9
REMARK    6  A    between atoms: S_9  and  C_12
REMARK    7  A    between atoms: C_12  and  C_13
REMARK    8  A    between atoms: C_19  and  C_20
REMARK    9  A    between atoms: C_26  and  C_27
REMARK                            x       y       z     vdW  Elec       q    Type
REMARK                         _______ _______ _______ _____ _____    ______ ____
ROOT
ATOM      1  N   UNL     1      24.247   0.272  -9.396  0.00  0.00    -0.193 NA
ATOM      2  H   UNL     1      23.712   0.598  -8.560  0.00  0.00    +0.148 HD
ENDROOT
BRANCH   1   3
ATOM      3  S   UNL     1      23.118  -0.623 -10.369  0.00  0.00    +0.034 S 
ATOM      4  O   UNL     1      22.814  -1.937  -9.704  0.00  0.00    -0.158 OA
ATOM      5  O   UNL     1      23.740  -0.890 -11.711  0.00  0.00    -0.158 OA
BRANCH   3   6
ATOM      6  C   UNL     1      21.609   0.310 -10.594  0.00  0.00    +0.221 C 
BRANCH   6   7
ATOM      7  C   UNL     1      20.466  -0.609 -10.953  0.00  0.00    -0.007 A 
ATOM      8  C   UNL     1      20.746  -1.815 -11.619  0.00  0.00    +0.009 A 
ATOM      9  C   UNL     1      19.718  -2.703 -11.943  0.00  0.00    +0.039 A 
ATOM     10  C   UNL     1      18.399  -2.401 -11.600  0.00  0.00    +0.125 A 
ATOM     11  F   UNL     1      17.403  -3.266 -11.916  0.00  0.00    -0.205 F 
ATOM     12  C   UNL     1      18.105  -1.212 -10.929  0.00  0.00    +0.057 A 
ATOM     13  C   UNL     1      19.128  -0.313 -10.598  0.00  0.00    +0.059 A 
BRANCH  13  14
ATOM     14  C   UNL     1      18.782   0.900  -9.895  0.00  0.00    +0.100 C 
ATOM     15  N   UNL     1      18.504   1.872  -9.333  0.00  0.00    -0.191 NA
ENDBRANCH  13  14
ENDBRANCH   6   7
ENDBRANCH   3   6
ENDBRANCH   1   3
BRANCH   1  16
ATOM     16  C   UNL     1      25.340  -0.602  -8.942  0.00  0.00    +0.117 C 
BRANCH  16  17
ATOM     17  C   UNL     1      26.749  -0.033  -9.321  0.00  0.00    +0.010 C 
ATOM     18  C   UNL     1      26.989   1.213  -8.418  0.00  0.00    +0.013 C 
ATOM     19  C   UNL     1      28.487   1.308  -8.231  0.00  0.00    +0.001 C 
ATOM     20  C   UNL     1      28.931  -0.134  -8.113  0.00  0.00    +0.001 C 
ATOM     21  C   UNL     1      27.949  -0.955  -8.950  0.00  0.00    +0.013 C 
BRANCH  17  26
ATOM     22  C   UNL     1      27.046   0.998 -15.142  0.00  0.00    +0.044 C 
ATOM     23  C   UNL     1      26.916   0.738 -13.670  0.00  0.00    -0.050 A 
ATOM     24  C   UNL     1      27.078  -0.548 -13.165  0.00  0.00    +0.003 A 
ATOM     25  C   UNL     1      27.004  -0.786 -11.794  0.00  0.00    +0.005 A 
ATOM     26  C   UNL     1      26.791   0.261 -10.858  0.00  0.00    -0.037 A 
ATOM     27  C   UNL     1      26.579   1.579 -11.400  0.00  0.00    -0.046 A 
ATOM     28  C   UNL     1      26.271   2.818 -10.586  0.00  0.00    +0.044 C 
ATOM     29  C   UNL     1      26.682   1.792 -12.787  0.00  0.00    +0.007 A 
ENDBRANCH  17  26
ENDBRANCH  16  17
ENDBRANCH   1  16
TORSDOF 7
