REMARK  Name = 
REMARK  8 active torsions:
REMARK  status: ('A' for Active; 'I' for Inactive)
REMARK    1  A    between atoms: C_1  and  C_2
REMARK    2  A    between atoms: C_4  and  S_5
REMARK    3  A    between atoms: S_5  and  C_6
REMARK    4  A    between atoms: C_9  and  C_10
REMARK    5  A    between atoms: C_11  and  S_12
REMARK    6  A    between atoms: S_12  and  N_15
REMARK    7  A    between atoms: N_15  and  C_16
REMARK    8  A    between atoms: C_16  and  C_17
REMARK                            x       y       z     vdW  Elec       q    Type
REMARK                         _______ _______ _______ _____ _____    ______ ____
ROOT
ATOM      1  S   UNL     1      25.212   0.735 -12.721  0.00  0.00    +0.059 S 
ATOM      2  O   UNL     1      26.214   0.165 -13.684  0.00  0.00    -0.153 OA
ATOM      3  O   UNL     1      24.504   1.896 -13.365  0.00  0.00    -0.153 OA
ENDROOT
BRANCH   1  10
ATOM      4  C   UNL     1      26.438   4.549  -9.366  0.00  0.00    +0.044 C 
ATOM      5  C   UNL     1      26.615   3.115  -9.771  0.00  0.00    -0.047 A 
ATOM      6  C   UNL     1      27.438   2.269  -9.026  0.00  0.00    +0.030 A 
ATOM      7  C   UNL     1      27.583   0.915  -9.364  0.00  0.00    +0.093 A 
ATOM      8  C   UNL     1      26.855   0.386 -10.467  0.00  0.00    +0.001 A 
ATOM      9  C   UNL     1      26.953  -1.077 -10.837  0.00  0.00    +0.048 C 
ATOM     10  C   UNL     1      26.059   1.265 -11.252  0.00  0.00    +0.110 A 
ATOM     11  C   UNL     1      25.920   2.606 -10.868  0.00  0.00    +0.032 A 
BRANCH   7  12
ATOM     12  S   UNL     1      28.701  -0.066  -8.388  0.00  0.00    -0.006 S 
ATOM     13  C   UNL     1      28.066  -0.298  -6.739  0.00  0.00    +0.200 C 
ATOM     14  O   UNL     1      28.863  -1.428  -9.006  0.00  0.00    -0.170 OA
ATOM     15  O   UNL     1      30.053   0.590  -8.337  0.00  0.00    -0.170 OA
ENDBRANCH   7  12
ENDBRANCH   1  10
BRANCH   1  16
ATOM     16  N   UNL     1      24.044  -0.494 -12.333  0.00  0.00    -0.186 NA
ATOM     17  H   UNL     1      23.214  -0.337 -12.951  0.00  0.00    +0.148 HD
BRANCH  16  18
ATOM     18  C   UNL     1      23.608  -0.352 -10.941  0.00  0.00    +0.141 C 
BRANCH  18  19
ATOM     19  C   UNL     1      22.120  -0.529 -10.864  0.00  0.00    -0.031 A 
ATOM     20  C   UNL     1      21.295   0.542 -10.436  0.00  0.00    +0.008 A 
ATOM     21  C   UNL     1      19.895   0.399 -10.399  0.00  0.00    +0.047 A 
ATOM     22  C   UNL     1      19.355  -0.817 -10.805  0.00  0.00    +0.135 A 
ATOM     23  O   UNL     1      18.090  -1.159 -10.853  0.00  0.00    -0.463 OA
ATOM     24  C   UNL     1      18.029  -2.400 -11.302  0.00  0.00    +0.196 A 
ATOM     25  C   UNL     1      19.305  -2.888 -11.559  0.00  0.00    +0.049 A 
ATOM     26  C   UNL     1      20.145  -1.849 -11.231  0.00  0.00    +0.020 A 
ATOM     27  C   UNL     1      21.531  -1.745 -11.281  0.00  0.00    +0.016 A 
ENDBRANCH  18  19
ENDBRANCH  16  18
ENDBRANCH   1  16
TORSDOF 5
