REMARK  Name = 
REMARK  7 active torsions:
REMARK  status: ('A' for Active; 'I' for Inactive)
REMARK    1  A    between atoms: C_1  and  S_2
REMARK    2  A    between atoms: S_2  and  C_5
REMARK    3  A    between atoms: C_8  and  C_9
REMARK    4  A    between atoms: C_15  and  C_16
REMARK    5  A    between atoms: C_16  and  C_17
REMARK    6  A    between atoms: C_17  and  O_18
REMARK    7  A    between atoms: C_17  and  C_19
REMARK                            x       y       z     vdW  Elec       q    Type
REMARK                         _______ _______ _______ _____ _____    ______ ____
ROOT
ATOM      1  C   UNL     1      24.458   0.026 -10.536  0.00  0.00    +0.247 C 
ATOM      2  O   UNL     1      25.002   0.032  -9.398  0.00  0.00    -0.270 OA
ATOM      3  N   UNL     1      25.196   0.500 -11.677  0.00  0.00    -0.294 N 
ATOM      4  C   UNL     1      25.115  -0.143 -12.981  0.00  0.00    +0.108 C 
ATOM      5  C   UNL     1      26.425   0.183 -13.681  0.00  0.00    +0.021 C 
ATOM      6  C   UNL     1      26.972   1.413 -12.966  0.00  0.00    +0.024 C 
ATOM      7  C   UNL     1      26.354   1.379 -11.562  0.00  0.00    +0.079 C 
ENDROOT
BRANCH   1  11
ATOM      8  C   UNL     1      20.431  -1.425 -10.950  0.00  0.00    +0.102 A 
ATOM      9  C   UNL     1      21.523  -2.249 -11.268  0.00  0.00    +0.029 A 
ATOM     10  C   UNL     1      22.830  -1.781 -11.132  0.00  0.00    +0.015 A 
ATOM     11  C   UNL     1      23.074  -0.479 -10.670  0.00  0.00    +0.038 A 
ATOM     12  C   UNL     1      21.986   0.357 -10.378  0.00  0.00    +0.030 A 
ATOM     13  C   UNL     1      20.671  -0.106 -10.510  0.00  0.00    +0.043 A 
ATOM     14 BR   UNL     1      19.256   1.119 -10.085  0.00  0.00    -0.048 Br
BRANCH   8  16
ATOM     15  C   UNL     1      18.795  -3.387 -12.332  0.00  0.00    +0.200 C 
ATOM     16  S   UNL     1      18.792  -2.061 -11.146  0.00  0.00    -0.005 S 
ATOM     17  O   UNL     1      17.866  -0.967 -11.601  0.00  0.00    -0.170 OA
ATOM     18  O   UNL     1      18.287  -2.592  -9.834  0.00  0.00    -0.170 OA
ENDBRANCH   8  16
ENDBRANCH   1  11
BRANCH   7  19
ATOM     19  C   UNL     1      25.930   2.778 -11.060  0.00  0.00    +0.059 C 
BRANCH  19  20
ATOM     20  C   UNL     1      26.790   3.275  -9.878  0.00  0.00    +0.153 C 
BRANCH  20  21
ATOM     21  C   UNL     1      27.441   2.120  -9.163  0.00  0.00    +0.018 A 
ATOM     22  C   UNL     1      27.042   1.568  -7.950  0.00  0.00    +0.014 A 
ATOM     23  C   UNL     1      27.842   0.493  -7.544  0.00  0.00    +0.008 A 
ATOM     24  C   UNL     1      28.868   0.194  -8.431  0.00  0.00    +0.045 A 
ATOM     25  S   UNL     1      28.779   1.268  -9.721  0.00  0.00    -0.099 S 
ENDBRANCH  20  21
BRANCH  20  26
ATOM     26  O   UNL     1      26.039   4.045  -8.974  0.00  0.00    -0.387 OA
ATOM     27  H   UNL     1      25.194   3.557  -8.787  0.00  0.00    +0.210 HD
ENDBRANCH  20  26
ENDBRANCH  19  20
ENDBRANCH   7  19
TORSDOF 6
