REMARK  Name = 
REMARK  7 active torsions:
REMARK  status: ('A' for Active; 'I' for Inactive)
REMARK    1  A    between atoms: C_1  and  C_2
REMARK    2  A    between atoms: C_5  and  C_6
REMARK    3  A    between atoms: C_9  and  S_10
REMARK    4  A    between atoms: S_10  and  N_13
REMARK    5  A    between atoms: N_13  and  C_14
REMARK    6  A    between atoms: C_14  and  C_15
REMARK    7  A    between atoms: C_15  and  C_16
REMARK                            x       y       z     vdW  Elec       q    Type
REMARK                         _______ _______ _______ _____ _____    ______ ____
ROOT
ATOM      1  N   UNL     1      23.715   0.173  -9.626  0.00  0.00    -0.189 NA
ATOM      2  H   UNL     1      22.960   0.637  -9.071  0.00  0.00    +0.148 HD
ENDROOT
BRANCH   1   3
ATOM      3  S   UNL     1      22.949  -0.969 -10.688  0.00  0.00    +0.059 S 
ATOM      4  O   UNL     1      23.447  -0.766 -12.092  0.00  0.00    -0.153 OA
ATOM      5  O   UNL     1      23.297  -2.367 -10.260  0.00  0.00    -0.153 OA
BRANCH   3  12
ATOM      6  C   UNL     1      20.772  -3.061 -11.602  0.00  0.00    +0.046 C 
ATOM      7  C   UNL     1      20.292  -1.749 -11.039  0.00  0.00    -0.024 A 
ATOM      8  C   UNL     1      18.909  -1.509 -10.966  0.00  0.00    +0.006 A 
ATOM      9  C   UNL     1      18.421  -0.311 -10.444  0.00  0.00    +0.019 A 
ATOM     10  C   UNL     1      19.308   0.669  -9.992  0.00  0.00    +0.054 A 
ATOM     11  C   UNL     1      20.688   0.454 -10.078  0.00  0.00    +0.047 A 
ATOM     12  C   UNL     1      21.193  -0.743 -10.611  0.00  0.00    +0.109 A 
BRANCH  10  13
ATOM     13  C   UNL     1      18.803   1.898  -9.437  0.00  0.00    +0.099 C 
ATOM     14  N   UNL     1      18.396   2.885  -8.992  0.00  0.00    -0.191 NA
ENDBRANCH  10  13
ENDBRANCH   3  12
ENDBRANCH   1   3
BRANCH   1  15
ATOM     15  C   UNL     1      24.630  -0.509  -8.698  0.00  0.00    +0.117 C 
BRANCH  15  16
ATOM     16  C   UNL     1      26.105  -0.182  -9.052  0.00  0.00    +0.010 C 
ATOM     17  C   UNL     1      26.682   0.778  -7.958  0.00  0.00    +0.013 C 
ATOM     18  C   UNL     1      28.228   0.854  -7.905  0.00  0.00    +0.001 C 
ATOM     19  C   UNL     1      28.935   0.154  -9.074  0.00  0.00    +0.000 C 
ATOM     20  C   UNL     1      28.431  -1.281  -9.309  0.00  0.00    +0.001 C 
ATOM     21  C   UNL     1      26.942  -1.489  -8.958  0.00  0.00    +0.013 C 
BRANCH  16  22
ATOM     22  C   UNL     1      26.133   0.387 -10.494  0.00  0.00    -0.037 A 
ATOM     23  C   UNL     1      25.946   1.761 -10.783  0.00  0.00    +0.004 A 
ATOM     24  C   UNL     1      25.939   2.225 -12.101  0.00  0.00    +0.003 A 
ATOM     25  C   UNL     1      26.110   1.335 -13.161  0.00  0.00    +0.038 A 
ATOM     26  C   UNL     1      26.281  -0.023 -12.905  0.00  0.00    +0.124 A 
ATOM     27  F   UNL     1      26.436  -0.890 -13.935  0.00  0.00    -0.205 F 
ATOM     28  C   UNL     1      26.279  -0.496 -11.591  0.00  0.00    +0.042 A 
ENDBRANCH  16  22
ENDBRANCH  15  16
ENDBRANCH   1  15
TORSDOF 6
