REMARK  Name = 
REMARK  8 active torsions:
REMARK  status: ('A' for Active; 'I' for Inactive)
REMARK    1  A    between atoms: C_1  and  S_2
REMARK    2  A    between atoms: S_2  and  C_5
REMARK    3  A    between atoms: C_7  and  C_8
REMARK    4  A    between atoms: N_10  and  C_11
REMARK    5  A    between atoms: C_11  and  C_12
REMARK    6  A    between atoms: C_17  and  O_18
REMARK    7  A    between atoms: O_18  and  C_19
REMARK    8  A    between atoms: C_27  and  N_28
REMARK                            x       y       z     vdW  Elec       q    Type
REMARK                         _______ _______ _______ _____ _____    ______ ____
ROOT
ATOM      1  C   UNL     1      22.583  -1.136 -10.175  0.00  0.00    +0.244 C 
ATOM      2  O   UNL     1      22.920  -2.340 -10.345  0.00  0.00    -0.270 OA
ATOM      3  N   UNL     1      23.592  -0.148  -9.909  0.00  0.00    -0.307 N 
ATOM      4  H   UNL     1      23.317   0.781  -9.520  0.00  0.00    +0.149 HD
ENDROOT
BRANCH   1   7
ATOM      5  C   UNL     1      18.878  -1.270 -10.958  0.00  0.00    +0.091 A 
ATOM      6  C   UNL     1      20.233  -1.611 -10.884  0.00  0.00    +0.040 A 
ATOM      7  C   UNL     1      21.149  -0.766 -10.236  0.00  0.00    +0.041 A 
ATOM      8  C   UNL     1      20.688   0.439  -9.673  0.00  0.00    +0.046 A 
ATOM      9  C   UNL     1      19.326   0.787  -9.734  0.00  0.00    +0.129 A 
ATOM     10  C   UNL     1      18.427  -0.080 -10.375  0.00  0.00    +0.059 A 
BRANCH   5  12
ATOM     11  C   UNL     1      18.635  -3.547 -12.717  0.00  0.00    +0.200 C 
ATOM     12  S   UNL     1      17.738  -2.353 -11.751  0.00  0.00    -0.006 S 
ATOM     13  O   UNL     1      16.907  -3.063 -10.720  0.00  0.00    -0.170 OA
ATOM     14  O   UNL     1      16.825  -1.565 -12.647  0.00  0.00    -0.170 OA
ENDBRANCH   5  12
BRANCH   9  15
ATOM     15  N   UNL     1      18.858   2.018  -9.151  0.00  0.00    +0.057 N 
ATOM     16  O   UNL     1      18.826   3.070  -9.822  0.00  0.00    -0.126 OA
ATOM     17  O   UNL     1      18.436   2.056  -7.842  0.00  0.00    -0.126 OA
ENDBRANCH   9  15
ENDBRANCH   1   7
BRANCH   3  18
ATOM     18  C   UNL     1      25.014  -0.408 -10.120  0.00  0.00    +0.143 C 
BRANCH  18  19
ATOM     19  C   UNL     1      25.444   0.118 -11.466  0.00  0.00    +0.012 A 
ATOM     20  C   UNL     1      24.512   0.815 -12.254  0.00  0.00    +0.009 A 
ATOM     21  C   UNL     1      24.867   1.290 -13.518  0.00  0.00    +0.001 A 
ATOM     22  C   UNL     1      26.150   1.064 -14.014  0.00  0.00    +0.004 A 
ATOM     23  C   UNL     1      27.085   0.366 -13.246  0.00  0.00    +0.046 A 
ATOM     24  C   UNL     1      26.747  -0.102 -11.963  0.00  0.00    +0.133 A 
BRANCH  24  25
ATOM     25  O   UNL     1      27.669  -0.826 -11.190  0.00  0.00    -0.456 OA
BRANCH  25  26
ATOM     26  C   UNL     1      27.819  -0.735  -9.800  0.00  0.00    +0.131 A 
ATOM     27  C   UNL     1      28.209   0.490  -9.244  0.00  0.00    +0.046 A 
ATOM     28  C   UNL     1      28.385   0.617  -7.863  0.00  0.00    +0.006 A 
ATOM     29  C   UNL     1      28.185  -0.486  -7.028  0.00  0.00    +0.038 A 
ATOM     30  C   UNL     1      27.814  -1.718  -7.574  0.00  0.00    +0.127 A 
ATOM     31  F   UNL     1      27.636  -2.791  -6.765  0.00  0.00    -0.205 F 
ATOM     32  C   UNL     1      27.638  -1.847  -8.956  0.00  0.00    +0.084 A 
ENDBRANCH  25  26
ENDBRANCH  24  25
ENDBRANCH  18  19
ENDBRANCH   3  18
TORSDOF 7
