REMARK  Name = 
REMARK  7 active torsions:
REMARK  status: ('A' for Active; 'I' for Inactive)
REMARK    1  A    between atoms: C_1  and  C_2
REMARK    2  A    between atoms: C_7  and  C_8
REMARK    3  A    between atoms: C_8  and  C_9
REMARK    4  A    between atoms: C_14  and  C_16
REMARK    5  A    between atoms: C_19  and  C_20
REMARK    6  A    between atoms: C_21  and  S_22
REMARK    7  A    between atoms: S_22  and  C_23
REMARK                            x       y       z     vdW  Elec       q    Type
REMARK                         _______ _______ _______ _____ _____    ______ ____
ROOT
ATOM      1  C   UNL     1      26.743   0.392 -11.844  0.00  0.00    +0.081 C 
ATOM      2  C   UNL     1      27.122   0.796 -13.275  0.00  0.00    +0.024 C 
ATOM      3  C   UNL     1      25.847   1.366 -13.885  0.00  0.00    +0.021 C 
ATOM      4  C   UNL     1      24.707   0.721 -13.111  0.00  0.00    +0.108 C 
ATOM      5  N   UNL     1      25.290   0.267 -11.857  0.00  0.00    -0.294 N 
ATOM      6  C   UNL     1      24.509   0.098 -10.658  0.00  0.00    +0.247 C 
ATOM      7  O   UNL     1      25.001   0.428  -9.545  0.00  0.00    -0.270 OA
ENDROOT
BRANCH   6   8
ATOM      8  C   UNL     1      23.136  -0.447 -10.707  0.00  0.00    +0.039 A 
ATOM      9  C   UNL     1      22.921  -1.825 -10.817  0.00  0.00    +0.013 A 
ATOM     10  C   UNL     1      21.624  -2.336 -10.850  0.00  0.00    +0.006 A 
ATOM     11  C   UNL     1      20.511  -1.482 -10.776  0.00  0.00    -0.026 A 
ATOM     12  C   UNL     1      19.136  -2.098 -10.779  0.00  0.00    +0.046 C 
ATOM     13  C   UNL     1      20.718  -0.087 -10.628  0.00  0.00    +0.091 A 
ATOM     14  C   UNL     1      22.033   0.411 -10.595  0.00  0.00    +0.040 A 
BRANCH  13  15
ATOM     15  S   UNL     1      19.373   1.064 -10.486  0.00  0.00    -0.006 S 
ATOM     16  C   UNL     1      18.465   0.795  -8.977  0.00  0.00    +0.200 C 
ATOM     17  O   UNL     1      19.903   2.470 -10.458  0.00  0.00    -0.170 OA
ATOM     18  O   UNL     1      18.457   0.928 -11.668  0.00  0.00    -0.170 OA
ENDBRANCH  13  15
ENDBRANCH   6   8
BRANCH   1  19
ATOM     19  C   UNL     1      27.404  -0.932 -11.406  0.00  0.00    +0.058 C 
BRANCH  19  26
ATOM     20  C   UNL     1      28.559   1.337  -9.774  0.00  0.00    +0.044 C 
ATOM     21  C   UNL     1      28.130   0.039  -9.140  0.00  0.00    -0.047 A 
ATOM     22  C   UNL     1      28.264  -0.112  -7.747  0.00  0.00    +0.003 A 
ATOM     23  C   UNL     1      27.849  -1.285  -7.116  0.00  0.00    +0.000 A 
ATOM     24  C   UNL     1      27.287  -2.319  -7.862  0.00  0.00    +0.000 A 
ATOM     25  C   UNL     1      27.139  -2.187  -9.243  0.00  0.00    +0.004 A 
ATOM     26  C   UNL     1      27.556  -1.014  -9.900  0.00  0.00    -0.043 A 
ENDBRANCH  19  26
ENDBRANCH   1  19
TORSDOF 4
