REMARK  Name = 
REMARK  5 active torsions:
REMARK  status: ('A' for Active; 'I' for Inactive)
REMARK    1  A    between atoms: C_2  and  C_3
REMARK    2  A    between atoms: C_9  and  C_10
REMARK    3  A    between atoms: C_10  and  S_11
REMARK    4  A    between atoms: S_11  and  N_14
REMARK    5  A    between atoms: N_14  and  C_15
REMARK                            x       y       z     vdW  Elec       q    Type
REMARK                         _______ _______ _______ _____ _____    ______ ____
ROOT
ATOM      1  S   UNL     1      23.160  -0.939 -10.462  0.00  0.00    +0.034 S 
ATOM      2  O   UNL     1      23.209  -1.052 -11.960  0.00  0.00    -0.158 OA
ATOM      3  O   UNL     1      23.260  -2.315  -9.867  0.00  0.00    -0.158 OA
ENDROOT
BRANCH   1   4
ATOM      4  N   UNL     1      24.510   0.006  -9.905  0.00  0.00    -0.191 NA
ATOM      5  H   UNL     1      24.152   0.954  -9.649  0.00  0.00    +0.148 HD
BRANCH   4   6
ATOM      6  C   UNL     1      25.583   0.085 -10.917  0.00  0.00    +0.082 C 
ATOM      7  C   UNL     1      25.333   1.146 -11.996  0.00  0.00    +0.021 C 
ATOM      8  C   UNL     1      26.713   1.619 -12.447  0.00  0.00    +0.002 C 
ATOM      9  C   UNL     1      27.734   0.956 -11.525  0.00  0.00    +0.008 C 
ATOM     10  C   UNL     1      26.949   0.456 -10.294  0.00  0.00    -0.012 C 
ATOM     11  C   UNL     1      27.608  -0.799  -9.658  0.00  0.00    +0.008 C 
ATOM     12  C   UNL     1      28.936  -0.467  -8.967  0.00  0.00    +0.001 C 
ATOM     13  C   UNL     1      28.740   0.604  -7.891  0.00  0.00    +0.000 C 
ATOM     14  C   UNL     1      28.136   1.879  -8.488  0.00  0.00    +0.001 C 
ATOM     15  C   UNL     1      26.816   1.583  -9.219  0.00  0.00    +0.008 C 
ENDBRANCH   4   6
ENDBRANCH   1   4
BRANCH   1  16
ATOM     16  C   UNL     1      21.613  -0.189  -9.973  0.00  0.00    +0.221 C 
BRANCH  16  23
ATOM     17  C   UNL     1      19.150  -0.368 -10.643  0.00  0.00    +0.059 A 
ATOM     18  C   UNL     1      18.094  -1.110 -11.192  0.00  0.00    +0.057 A 
ATOM     19  C   UNL     1      18.314  -2.404 -11.671  0.00  0.00    +0.125 A 
ATOM     20  F   UNL     1      17.287  -3.114 -12.199  0.00  0.00    -0.205 F 
ATOM     21  C   UNL     1      19.589  -2.968 -11.601  0.00  0.00    +0.039 A 
ATOM     22  C   UNL     1      20.649  -2.239 -11.056  0.00  0.00    +0.009 A 
ATOM     23  C   UNL     1      20.448  -0.930 -10.582  0.00  0.00    -0.007 A 
BRANCH  17  25
ATOM     24  N   UNL     1      18.657   2.022  -9.746  0.00  0.00    -0.191 NA
ATOM     25  C   UNL     1      18.877   0.959 -10.146  0.00  0.00    +0.100 C 
ENDBRANCH  17  25
ENDBRANCH  16  23
ENDBRANCH   1  16
TORSDOF 5
