REMARK  Name = 
REMARK  8 active torsions:
REMARK  status: ('A' for Active; 'I' for Inactive)
REMARK    1  A    between atoms: C_1  and  S_2
REMARK    2  A    between atoms: S_2  and  C_5
REMARK    3  A    between atoms: C_8  and  C_9
REMARK    4  A    between atoms: N_11  and  S_12
REMARK    5  A    between atoms: S_12  and  C_15
REMARK    6  A    between atoms: C_15  and  C_16
REMARK    7  A    between atoms: C_21  and  C_22
REMARK    8  A    between atoms: C_25  and  N_26
REMARK                            x       y       z     vdW  Elec       q    Type
REMARK                         _______ _______ _______ _____ _____    ______ ____
ROOT
ATOM      1  C   UNL     1      24.765  -0.710  -9.556  0.00  0.00    +0.263 C 
ATOM      2  O   UNL     1      25.587  -1.631  -9.811  0.00  0.00    -0.269 OA
ATOM      3  N   UNL     1      25.230   0.508  -8.957  0.00  0.00    -0.186 N 
ATOM      4  H   UNL     1      24.610   1.346  -8.905  0.00  0.00    +0.176 HD
ENDROOT
BRANCH   1   8
ATOM      5  C   UNL     1      20.611  -1.298 -10.539  0.00  0.00    +0.118 A 
ATOM      6  C   UNL     1      21.560  -2.299 -10.788  0.00  0.00    +0.030 A 
ATOM      7  C   UNL     1      22.904  -2.104 -10.470  0.00  0.00    +0.015 A 
ATOM      8  C   UNL     1      23.334  -0.897  -9.900  0.00  0.00    +0.040 A 
ATOM      9  C   UNL     1      22.387   0.110  -9.647  0.00  0.00    +0.047 A 
ATOM     10  C   UNL     1      21.032  -0.068  -9.979  0.00  0.00    +0.152 A 
BRANCH   5  12
ATOM     11  C   UNL     1      18.804  -3.043 -12.001  0.00  0.00    +0.200 C 
ATOM     12  S   UNL     1      18.913  -1.659 -10.888  0.00  0.00    -0.004 S 
ATOM     13  O   UNL     1      18.225  -0.463 -11.485  0.00  0.00    -0.170 OA
ATOM     14  O   UNL     1      18.207  -2.011  -9.607  0.00  0.00    -0.170 OA
ENDBRANCH   5  12
BRANCH  10  15
ATOM     15  N   UNL     1      20.114   1.009  -9.745  0.00  0.00    +0.058 N 
ATOM     16  O   UNL     1      20.139   2.020 -10.477  0.00  0.00    -0.126 OA
ATOM     17  O   UNL     1      19.049   0.835  -8.891  0.00  0.00    -0.126 OA
ENDBRANCH  10  15
ENDBRANCH   1   8
BRANCH   3  18
ATOM     18  S   UNL     1      26.868   0.689  -8.421  0.00  0.00    +0.050 S 
ATOM     19  O   UNL     1      26.997   1.980  -7.665  0.00  0.00    -0.155 OA
ATOM     20  O   UNL     1      27.224  -0.449  -7.506  0.00  0.00    -0.155 OA
BRANCH  18  21
ATOM     21  C   UNL     1      27.957   0.718  -9.836  0.00  0.00    +0.225 C 
BRANCH  21  22
ATOM     22  C   UNL     1      27.163   0.870 -11.112  0.00  0.00    -0.007 A 
ATOM     23  C   UNL     1      27.154  -0.190 -12.037  0.00  0.00    +0.006 A 
ATOM     24  C   UNL     1      26.409  -0.098 -13.214  0.00  0.00    +0.000 A 
ATOM     25  C   UNL     1      25.658   1.048 -13.480  0.00  0.00    +0.001 A 
ATOM     26  C   UNL     1      25.648   2.105 -12.568  0.00  0.00    +0.019 A 
ATOM     27  C   UNL     1      26.391   2.025 -11.381  0.00  0.00    +0.057 A 
BRANCH  27  28
ATOM     28  C   UNL     1      26.342   3.133 -10.459  0.00  0.00    +0.099 C 
ATOM     29  N   UNL     1      26.302   4.023  -9.720  0.00  0.00    -0.191 NA
ENDBRANCH  27  28
ENDBRANCH  21  22
ENDBRANCH  18  21
ENDBRANCH   3  18
TORSDOF 7
