REMARK  Name = 
REMARK  9 active torsions:
REMARK  status: ('A' for Active; 'I' for Inactive)
REMARK    1  A    between atoms: C_1  and  O_2
REMARK    2  A    between atoms: O_2  and  C_3
REMARK    3  A    between atoms: C_6  and  C_7
REMARK    4  A    between atoms: C_7  and  C_8
REMARK    5  A    between atoms: C_8  and  N_9
REMARK    6  A    between atoms: N_9  and  S_10
REMARK    7  A    between atoms: S_10  and  C_13
REMARK    8  A    between atoms: C_13  and  C_14
REMARK    9  A    between atoms: C_20  and  C_21
REMARK                            x       y       z     vdW  Elec       q    Type
REMARK                         _______ _______ _______ _____ _____    ______ ____
ROOT
ATOM      1  C   UNL     1      25.372  -0.817  -8.826  0.00  0.00    +0.117 C 
ENDROOT
BRANCH   1   2
ATOM      2  C   UNL     1      26.847  -0.528  -9.256  0.00  0.00    +0.010 C 
ATOM      3  C   UNL     1      27.568   0.457  -8.254  0.00  0.00    +0.013 C 
ATOM      4  C   UNL     1      28.529  -0.199  -7.246  0.00  0.00    +0.001 C 
ATOM      5  C   UNL     1      27.977  -1.519  -6.726  0.00  0.00    +0.000 C 
ATOM      6  C   UNL     1      27.775  -2.533  -7.862  0.00  0.00    +0.001 C 
ATOM      7  C   UNL     1      27.617  -1.891  -9.258  0.00  0.00    +0.013 C 
BRANCH   2  11
ATOM      8  C   UNL     1      26.886   1.226 -13.286  0.00  0.00    +0.120 A 
ATOM      9  C   UNL     1      27.170  -0.124 -13.087  0.00  0.00    +0.046 A 
ATOM     10  C   UNL     1      27.142  -0.676 -11.804  0.00  0.00    +0.008 A 
ATOM     11  C   UNL     1      26.812   0.106 -10.673  0.00  0.00    -0.040 A 
ATOM     12  C   UNL     1      26.552   1.482 -10.889  0.00  0.00    +0.008 A 
ATOM     13  C   UNL     1      26.579   2.029 -12.175  0.00  0.00    +0.046 A 
BRANCH   8  15
ATOM     14  C   UNL     1      27.397   1.004 -15.723  0.00  0.00    +0.277 C 
ATOM     15  O   UNL     1      26.925   1.732 -14.594  0.00  0.00    -0.495 OA
ENDBRANCH   8  15
ENDBRANCH   2  11
ENDBRANCH   1   2
BRANCH   1  16
ATOM     16  N   UNL     1      24.420   0.138  -9.413  0.00  0.00    -0.193 NA
ATOM     17  H   UNL     1      23.882   0.592  -8.640  0.00  0.00    +0.148 HD
BRANCH  16  18
ATOM     18  S   UNL     1      23.249  -0.696 -10.390  0.00  0.00    +0.034 S 
ATOM     19  O   UNL     1      22.983  -2.056  -9.807  0.00  0.00    -0.158 OA
ATOM     20  O   UNL     1      23.806  -0.860 -11.777  0.00  0.00    -0.158 OA
BRANCH  18  21
ATOM     21  C   UNL     1      21.725   0.235 -10.465  0.00  0.00    +0.221 C 
BRANCH  21  22
ATOM     22  C   UNL     1      20.571  -0.666 -10.835  0.00  0.00    -0.007 A 
ATOM     23  C   UNL     1      20.836  -1.856 -11.535  0.00  0.00    +0.009 A 
ATOM     24  C   UNL     1      19.792  -2.701 -11.920  0.00  0.00    +0.039 A 
ATOM     25  C   UNL     1      18.472  -2.366 -11.618  0.00  0.00    +0.125 A 
ATOM     26  F   UNL     1      17.461  -3.188 -11.994  0.00  0.00    -0.205 F 
ATOM     27  C   UNL     1      18.190  -1.181 -10.934  0.00  0.00    +0.057 A 
ATOM     28  C   UNL     1      19.228  -0.324 -10.543  0.00  0.00    +0.059 A 
BRANCH  28  29
ATOM     29  C   UNL     1      18.892   0.896  -9.849  0.00  0.00    +0.100 C 
ATOM     30  N   UNL     1      18.623   1.875  -9.293  0.00  0.00    -0.191 NA
ENDBRANCH  28  29
ENDBRANCH  21  22
ENDBRANCH  18  21
ENDBRANCH  16  18
ENDBRANCH   1  16
TORSDOF 8
