REMARK  Name = 
REMARK  10 active torsions:
REMARK  status: ('A' for Active; 'I' for Inactive)
REMARK    1  A    between atoms: C_1  and  C_2
REMARK    2  A    between atoms: C_5  and  C_6
REMARK    3  A    between atoms: N_8  and  C_9
REMARK    4  A    between atoms: C_9  and  C_10
REMARK    5  A    between atoms: C_10  and  N_11
REMARK    6  A    between atoms: N_11  and  C_12
REMARK    7  A    between atoms: C_12  and  C_13
REMARK    8  A    between atoms: C_12  and  C_14
REMARK    9  A    between atoms: C_25  and  S_26
REMARK   10  A    between atoms: S_26  and  C_27
REMARK                            x       y       z     vdW  Elec       q    Type
REMARK                         _______ _______ _______ _____ _____    ______ ____
ROOT
ATOM      1  C   UNL     1      25.824   0.962 -10.102  0.00  0.00    +0.126 C 
ENDROOT
BRANCH   1   2
ATOM      2  C   UNL     1      26.840   1.018 -11.290  0.00  0.00    +0.035 C 
ATOM      3  C   UNL     1      26.361   1.998 -12.387  0.00  0.00    +0.024 C 
ATOM      4  C   UNL     1      27.099   1.584 -13.652  0.00  0.00    +0.002 C 
ATOM      5  C   UNL     1      27.433   0.104 -13.479  0.00  0.00    +0.002 C 
ATOM      6  C   UNL     1      26.929  -0.292 -12.093  0.00  0.00    +0.024 C 
BRANCH   2   7
ATOM      7  N   UNL     1      28.211   1.437 -10.853  0.00  0.00    -0.303 NA
ATOM      8  H   UNL     1      28.367   2.426 -11.161  0.00  0.00    +0.123 HD
BRANCH   7   9
ATOM      9  C   UNL     1      28.557   1.402  -9.409  0.00  0.00    +0.081 C 
ATOM     10  C   UNL     1      27.787   2.442  -8.582  0.00  0.00    +0.029 C 
BRANCH   9  11
ATOM     11  C   UNL     1      28.241   0.024  -8.851  0.00  0.00    -0.031 A 
ATOM     12  C   UNL     1      27.685  -0.117  -7.566  0.00  0.00    +0.005 A 
ATOM     13  C   UNL     1      27.413  -1.387  -7.048  0.00  0.00    +0.000 A 
ATOM     14  C   UNL     1      27.701  -2.526  -7.802  0.00  0.00    +0.000 A 
ATOM     15  C   UNL     1      28.262  -2.399  -9.075  0.00  0.00    +0.000 A 
ATOM     16  C   UNL     1      28.536  -1.131  -9.597  0.00  0.00    +0.005 A 
ENDBRANCH   9  11
ENDBRANCH   7   9
ENDBRANCH   2   7
ENDBRANCH   1   2
BRANCH   1  19
ATOM     17  C   UNL     1      23.955  -0.771 -10.224  0.00  0.00    +0.244 C 
ATOM     18  O   UNL     1      24.705  -1.647  -9.711  0.00  0.00    -0.270 OA
ATOM     19  N   UNL     1      24.478   0.540 -10.504  0.00  0.00    -0.310 N 
ATOM     20  H   UNL     1      23.879   1.239 -10.995  0.00  0.00    +0.149 HD
BRANCH  17  25
ATOM     21  C   UNL     1      18.491  -2.255 -11.537  0.00  0.00    +0.046 C 
ATOM     22  C   UNL     1      19.892  -1.835 -11.174  0.00  0.00    -0.026 A 
ATOM     23  C   UNL     1      20.942  -2.748 -11.365  0.00  0.00    +0.006 A 
ATOM     24  C   UNL     1      22.255  -2.398 -11.054  0.00  0.00    +0.013 A 
ATOM     25  C   UNL     1      22.554  -1.124 -10.554  0.00  0.00    +0.039 A 
ATOM     26  C   UNL     1      21.508  -0.207 -10.358  0.00  0.00    +0.040 A 
ATOM     27  C   UNL     1      20.180  -0.540 -10.676  0.00  0.00    +0.091 A 
BRANCH  27  28
ATOM     28  S   UNL     1      18.896   0.660 -10.421  0.00  0.00    -0.006 S 
ATOM     29  C   UNL     1      19.537   2.295 -10.114  0.00  0.00    +0.200 C 
ATOM     30  O   UNL     1      18.029   0.736 -11.646  0.00  0.00    -0.170 OA
ATOM     31  O   UNL     1      18.061   0.251  -9.241  0.00  0.00    -0.170 OA
ENDBRANCH  27  28
ENDBRANCH  17  25
ENDBRANCH   1  19
TORSDOF 7
