REMARK  Name = 
REMARK  7 active torsions:
REMARK  status: ('A' for Active; 'I' for Inactive)
REMARK    1  A    between atoms: S_2  and  N_4
REMARK    2  A    between atoms: S_2  and  C_20
REMARK    3  A    between atoms: N_4  and  C_5
REMARK    4  A    between atoms: C_5  and  C_6
REMARK    5  A    between atoms: C_11  and  O_12
REMARK    6  A    between atoms: O_12  and  C_13
REMARK    7  A    between atoms: C_22  and  C_23
REMARK                            x       y       z     vdW  Elec       q    Type
REMARK                         _______ _______ _______ _____ _____    ______ ____
ROOT
ATOM      1  N   UNL     1      23.260  -1.187 -11.603  0.00  0.00    -0.190 NA
ATOM      2  H   UNL     1      22.657  -1.643 -12.327  0.00  0.00    +0.148 HD
ENDROOT
BRANCH   1   4
ATOM      3  O   UNL     1      21.923   0.120  -9.758  0.00  0.00    -0.158 OA
ATOM      4  S   UNL     1      22.390  -1.267 -10.101  0.00  0.00    +0.033 S 
ATOM      5  O   UNL     1      23.308  -1.744  -9.011  0.00  0.00    -0.158 OA
BRANCH   4   6
ATOM      6  C   UNL     1      20.933  -2.316 -10.300  0.00  0.00    +0.156 C 
ATOM      7  C   UNL     1      20.322  -2.164 -11.687  0.00  0.00    +0.038 C 
ATOM      8  C   UNL     1      19.517  -1.743 -10.464  0.00  0.00    +0.047 C 
BRANCH   8   9
ATOM      9  C   UNL     1      19.304  -0.264 -10.261  0.00  0.00    -0.040 A 
ATOM     10  C   UNL     1      19.323   0.633 -11.345  0.00  0.00    +0.004 A 
ATOM     11  C   UNL     1      19.077   1.994 -11.135  0.00  0.00    +0.003 A 
ATOM     12  C   UNL     1      18.780   2.464  -9.854  0.00  0.00    +0.038 A 
ATOM     13  C   UNL     1      18.714   1.572  -8.780  0.00  0.00    +0.124 A 
ATOM     14  F   UNL     1      18.400   2.026  -7.542  0.00  0.00    -0.205 F 
ATOM     15  C   UNL     1      18.959   0.211  -8.986  0.00  0.00    +0.042 A 
ENDBRANCH   8   9
ENDBRANCH   4   6
ENDBRANCH   1   4
BRANCH   1  16
ATOM     16  C   UNL     1      23.462   0.209 -11.991  0.00  0.00    +0.144 C 
BRANCH  16  17
ATOM     17  C   UNL     1      24.871   0.395 -12.485  0.00  0.00    +0.010 A 
ATOM     18  C   UNL     1      25.106   0.989 -13.737  0.00  0.00    +0.008 A 
ATOM     19  C   UNL     1      26.411   1.137 -14.214  0.00  0.00    +0.001 A 
ATOM     20  C   UNL     1      27.490   0.693 -13.449  0.00  0.00    +0.004 A 
ATOM     21  C   UNL     1      27.269   0.089 -12.210  0.00  0.00    +0.046 A 
ATOM     22  C   UNL     1      25.960  -0.082 -11.726  0.00  0.00    +0.133 A 
BRANCH  22  23
ATOM     23  O   UNL     1      25.716  -0.682 -10.481  0.00  0.00    -0.456 OA
BRANCH  23  24
ATOM     24  C   UNL     1      26.535  -0.570  -9.348  0.00  0.00    +0.131 A 
ATOM     25  C   UNL     1      26.910   0.708  -8.916  0.00  0.00    +0.046 A 
ATOM     26  C   UNL     1      27.711   0.864  -7.780  0.00  0.00    +0.006 A 
ATOM     27  C   UNL     1      28.132  -0.258  -7.062  0.00  0.00    +0.038 A 
ATOM     28  C   UNL     1      27.748  -1.538  -7.474  0.00  0.00    +0.127 A 
ATOM     29  F   UNL     1      28.143  -2.625  -6.768  0.00  0.00    -0.205 F 
ATOM     30  C   UNL     1      26.947  -1.696  -8.610  0.00  0.00    +0.084 A 
ENDBRANCH  23  24
ENDBRANCH  22  23
ENDBRANCH  16  17
ENDBRANCH   1  16
TORSDOF 7
