REMARK  Name = 
REMARK  7 active torsions:
REMARK  status: ('A' for Active; 'I' for Inactive)
REMARK    1  A    between atoms: C_1  and  C_2
REMARK    2  A    between atoms: C_5  and  C_6
REMARK    3  A    between atoms: C_13  and  C_14
REMARK    4  A    between atoms: C_16  and  C_17
REMARK    5  A    between atoms: C_20  and  O_21
REMARK    6  A    between atoms: C_23  and  S_24
REMARK    7  A    between atoms: S_24  and  C_25
REMARK                            x       y       z     vdW  Elec       q    Type
REMARK                         _______ _______ _______ _____ _____    ______ ____
ROOT
ATOM      1  C   UNL     1      23.989  -0.803 -10.677  0.00  0.00    +0.247 C 
ATOM      2  O   UNL     1      24.661  -1.717 -10.121  0.00  0.00    -0.270 OA
ATOM      3  N   UNL     1      24.634   0.404 -11.147  0.00  0.00    -0.294 N 
ATOM      4  C   UNL     1      24.304   0.894 -12.500  0.00  0.00    +0.108 C 
ATOM      5  C   UNL     1      25.516   0.724 -13.451  0.00  0.00    +0.019 C 
ATOM      6  C   UNL     1      26.545  -0.294 -12.914  0.00  0.00    +0.003 C 
ATOM      7  C   UNL     1      27.038   0.054 -11.486  0.00  0.00    +0.023 C 
ATOM      8  C   UNL     1      25.969   0.824 -10.669  0.00  0.00    +0.082 C 
ENDROOT
BRANCH   1  13
ATOM      9  C   UNL     1      18.304  -1.707 -11.330  0.00  0.00    +0.046 C 
ATOM     10  C   UNL     1      19.773  -1.442 -11.105  0.00  0.00    -0.026 A 
ATOM     11  C   UNL     1      20.691  -2.484 -11.339  0.00  0.00    +0.006 A 
ATOM     12  C   UNL     1      22.062  -2.270 -11.204  0.00  0.00    +0.013 A 
ATOM     13  C   UNL     1      22.546  -1.010 -10.850  0.00  0.00    +0.039 A 
ATOM     14  C   UNL     1      21.646   0.036 -10.616  0.00  0.00    +0.040 A 
ATOM     15  C   UNL     1      20.257  -0.159 -10.738  0.00  0.00    +0.091 A 
BRANCH  15  16
ATOM     16  S   UNL     1      19.167   1.205 -10.393  0.00  0.00    -0.006 S 
ATOM     17  C   UNL     1      18.422   1.030  -8.783  0.00  0.00    +0.200 C 
ATOM     18  O   UNL     1      18.061   1.245 -11.411  0.00  0.00    -0.170 OA
ATOM     19  O   UNL     1      19.929   2.500 -10.471  0.00  0.00    -0.170 OA
ENDBRANCH  15  16
ENDBRANCH   1  13
BRANCH   8  20
ATOM     20  C   UNL     1      26.166   0.727  -9.119  0.00  0.00    +0.038 C 
ATOM     21  C   UNL     1      27.205   1.762  -8.578  0.00  0.00    +0.011 C 
ATOM     22  C   UNL     1      28.596   1.186  -8.235  0.00  0.00    -0.014 C 
ATOM     23  C   UNL     1      29.444   0.965  -9.498  0.00  0.00    +0.007 C 
ATOM     24  C   UNL     1      28.533  -0.082  -7.336  0.00  0.00    +0.006 C 
ATOM     25  C   UNL     1      27.140  -0.732  -7.263  0.00  0.00    +0.032 C 
ATOM     26  C   UNL     1      26.443  -0.733  -8.629  0.00  0.00    +0.119 C 
BRANCH  26  27
ATOM     27  O   UNL     1      27.221  -1.454  -9.551  0.00  0.00    -0.391 OA
ATOM     28  H   UNL     1      26.594  -1.989 -10.108  0.00  0.00    +0.210 HD
ENDBRANCH  26  27
ENDBRANCH   8  20
TORSDOF 4
