REMARK  Name = 
REMARK  10 active torsions:
REMARK  status: ('A' for Active; 'I' for Inactive)
REMARK    1  A    between atoms: C_1  and  C_2
REMARK    2  A    between atoms: C_2  and  N_3
REMARK    3  A    between atoms: C_2  and  C_20
REMARK    4  A    between atoms: C_4  and  C_6
REMARK    5  A    between atoms: C_6  and  N_7
REMARK    6  A    between atoms: N_7  and  S_8
REMARK    7  A    between atoms: S_8  and  C_11
REMARK    8  A    between atoms: C_16  and  N_17
REMARK    9  A    between atoms: C_20  and  O_21
REMARK   10  A    between atoms: C_20  and  C_22
REMARK                            x       y       z     vdW  Elec       q    Type
REMARK                         _______ _______ _______ _____ _____    ______ ____
ROOT
ATOM      1  N   UNL     1      25.748   0.665  -8.847  0.00  0.00    -0.309 N 
ATOM      2  C   UNL     1      25.102  -0.606  -9.011  0.00  0.00    +0.229 C 
ATOM      3  O   UNL     1      25.782  -1.645  -9.230  0.00  0.00    -0.274 OA
ATOM      4  H   UNL     1      25.148   1.502  -8.661  0.00  0.00    +0.149 HD
ENDROOT
BRANCH   1   6
ATOM      5  C   UNL     1      27.749  -0.091  -7.638  0.00  0.00    +0.031 C 
ATOM      6  C   UNL     1      27.205   0.809  -8.756  0.00  0.00    +0.103 C 
BRANCH   6   7
ATOM      7  C   UNL     1      27.881   0.518 -10.118  0.00  0.00    +0.164 C 
BRANCH   7   8
ATOM      8  C   UNL     1      26.932   0.706 -11.289  0.00  0.00    -0.015 A 
ATOM      9  C   UNL     1      26.898  -0.222 -12.347  0.00  0.00    +0.006 A 
ATOM     10  C   UNL     1      26.039  -0.024 -13.433  0.00  0.00    +0.003 A 
ATOM     11  C   UNL     1      25.210   1.099 -13.475  0.00  0.00    +0.038 A 
ATOM     12  C   UNL     1      25.237   2.028 -12.432  0.00  0.00    +0.124 A 
ATOM     13  F   UNL     1      24.437   3.121 -12.477  0.00  0.00    -0.205 F 
ATOM     14  C   UNL     1      26.093   1.834 -11.343  0.00  0.00    +0.044 A 
ENDBRANCH   7   8
BRANCH   7  15
ATOM     15  O   UNL     1      29.007   1.346 -10.264  0.00  0.00    -0.385 OA
ATOM     16  H   UNL     1      28.844   1.916 -11.060  0.00  0.00    +0.210 HD
ENDBRANCH   7  15
ENDBRANCH   6   7
ENDBRANCH   1   6
BRANCH   2  17
ATOM     17  C   UNL     1      23.611  -0.706  -8.906  0.00  0.00    +0.201 C 
BRANCH  17  18
ATOM     18  N   UNL     1      23.145  -1.943  -9.535  0.00  0.00    -0.181 NA
ATOM     19  H   UNL     1      22.460  -2.421  -8.905  0.00  0.00    +0.149 HD
BRANCH  18  20
ATOM     20  S   UNL     1      22.350  -1.606 -11.050  0.00  0.00    +0.061 S 
ATOM     21  O   UNL     1      21.968  -2.929 -11.652  0.00  0.00    -0.153 OA
ATOM     22  O   UNL     1      23.286  -0.895 -11.988  0.00  0.00    -0.153 OA
BRANCH  20  23
ATOM     23  C   UNL     1      20.884  -0.624 -10.835  0.00  0.00    +0.135 A 
ATOM     24  C   UNL     1      21.007   0.758 -10.601  0.00  0.00    +0.031 A 
ATOM     25  C   UNL     1      19.878   1.541 -10.352  0.00  0.00    +0.002 A 
ATOM     26  C   UNL     1      18.613   0.961 -10.334  0.00  0.00    +0.002 A 
ATOM     27  C   UNL     1      18.469  -0.404 -10.584  0.00  0.00    +0.035 A 
ATOM     28  C   UNL     1      19.590  -1.207 -10.856  0.00  0.00    +0.152 A 
BRANCH  28  29
ATOM     29  N   UNL     1      19.392  -2.597 -11.164  0.00  0.00    +0.058 N 
ATOM     30  O   UNL     1      19.544  -3.004 -12.334  0.00  0.00    -0.126 OA
ATOM     31  O   UNL     1      19.257  -3.518 -10.152  0.00  0.00    -0.126 OA
ENDBRANCH  28  29
ENDBRANCH  20  23
ENDBRANCH  18  20
ENDBRANCH  17  18
ENDBRANCH   2  17
TORSDOF 9
