REMARK  Name = 
REMARK  7 active torsions:
REMARK  status: ('A' for Active; 'I' for Inactive)
REMARK    1  A    between atoms: C_1  and  S_2
REMARK    2  A    between atoms: S_2  and  C_5
REMARK    3  A    between atoms: C_7  and  C_8
REMARK    4  A    between atoms: N_10  and  C_11
REMARK    5  A    between atoms: C_16  and  O_17
REMARK    6  A    between atoms: O_17  and  C_18
REMARK    7  A    between atoms: C_27  and  N_28
REMARK                            x       y       z     vdW  Elec       q    Type
REMARK                         _______ _______ _______ _____ _____    ______ ____
ROOT
ATOM      1  C   UNL     1      22.613  -0.500 -11.207  0.00  0.00    +0.248 C 
ATOM      2  O   UNL     1      23.078  -1.663 -11.354  0.00  0.00    -0.270 OA
ATOM      3  N   UNL     1      23.500   0.627 -11.283  0.00  0.00    -0.279 N 
ATOM      4  H   UNL     1      23.322   1.443 -10.655  0.00  0.00    +0.155 HD
ENDROOT
BRANCH   1   7
ATOM      5  C   UNL     1      18.863  -1.115 -11.169  0.00  0.00    +0.091 A 
ATOM      6  C   UNL     1      20.228  -1.257 -11.449  0.00  0.00    +0.040 A 
ATOM      7  C   UNL     1      21.157  -0.312 -10.980  0.00  0.00    +0.041 A 
ATOM      8  C   UNL     1      20.694   0.785 -10.232  0.00  0.00    +0.046 A 
ATOM      9  C   UNL     1      19.324   0.946  -9.955  0.00  0.00    +0.129 A 
ATOM     10  C   UNL     1      18.417  -0.015 -10.430  0.00  0.00    +0.059 A 
BRANCH   5  12
ATOM     11  C   UNL     1      18.542  -3.532 -12.719  0.00  0.00    +0.200 C 
ATOM     12  S   UNL     1      17.702  -2.313 -11.734  0.00  0.00    -0.006 S 
ATOM     13  O   UNL     1      16.645  -1.633 -12.557  0.00  0.00    -0.170 OA
ATOM     14  O   UNL     1      17.044  -2.995 -10.567  0.00  0.00    -0.170 OA
ENDBRANCH   5  12
BRANCH   9  15
ATOM     15  N   UNL     1      18.856   2.072  -9.191  0.00  0.00    +0.057 N 
ATOM     16  O   UNL     1      18.840   3.218  -9.688  0.00  0.00    -0.126 OA
ATOM     17  O   UNL     1      18.417   1.906  -7.898  0.00  0.00    -0.126 OA
ENDBRANCH   9  15
ENDBRANCH   1   7
BRANCH   3  18
ATOM     18  C   UNL     1      24.738   0.586 -12.009  0.00  0.00    +0.076 A 
ATOM     19  C   UNL     1      24.849   1.316 -13.203  0.00  0.00    +0.027 A 
ATOM     20  C   UNL     1      26.059   1.352 -13.901  0.00  0.00    +0.002 A 
ATOM     21  C   UNL     1      27.167   0.657 -13.416  0.00  0.00    +0.004 A 
ATOM     22  C   UNL     1      27.063  -0.098 -12.244  0.00  0.00    +0.048 A 
ATOM     23  C   UNL     1      25.847  -0.169 -11.552  0.00  0.00    +0.150 A 
BRANCH  23  24
ATOM     24  O   UNL     1      25.777  -0.991 -10.418  0.00  0.00    -0.454 OA
BRANCH  24  25
ATOM     25  C   UNL     1      26.499  -0.778  -9.233  0.00  0.00    +0.134 A 
ATOM     26  C   UNL     1      26.724   0.539  -8.812  0.00  0.00    +0.084 A 
ATOM     27  C   UNL     1      27.416   0.792  -7.623  0.00  0.00    +0.130 A 
ATOM     28  F   UNL     1      27.605   2.069  -7.208  0.00  0.00    -0.205 F 
ATOM     29  C   UNL     1      27.909  -0.270  -6.860  0.00  0.00    +0.077 A 
ATOM     30  C   UNL     1      27.711  -1.587  -7.286  0.00  0.00    +0.130 A 
ATOM     31  F   UNL     1      28.195  -2.616  -6.548  0.00  0.00    -0.205 F 
ATOM     32  C   UNL     1      27.010  -1.843  -8.468  0.00  0.00    +0.084 A 
ENDBRANCH  24  25
ENDBRANCH  23  24
ENDBRANCH   3  18
TORSDOF 6
