REMARK  Name = 
REMARK  10 active torsions:
REMARK  status: ('A' for Active; 'I' for Inactive)
REMARK    1  A    between atoms: C_1  and  C_2
REMARK    2  A    between atoms: C_2  and  C_3
REMARK    3  A    between atoms: C_3  and  C_4
REMARK    4  A    between atoms: C_4  and  C_5
REMARK    5  A    between atoms: C_8  and  C_9
REMARK    6  A    between atoms: C_9  and  N_10
REMARK    7  A    between atoms: N_10  and  S_11
REMARK    8  A    between atoms: S_11  and  C_14
REMARK    9  A    between atoms: C_14  and  C_15
REMARK   10  A    between atoms: C_21  and  C_22
REMARK                            x       y       z     vdW  Elec       q    Type
REMARK                         _______ _______ _______ _____ _____    ______ ____
ROOT
ATOM      1  N   UNL     1      24.771   0.303 -10.093  0.00  0.00    -0.194 NA
ATOM      2  H   UNL     1      24.413   0.959  -9.362  0.00  0.00    +0.148 HD
ENDROOT
BRANCH   1   3
ATOM      3  S   UNL     1      23.424  -0.668 -10.608  0.00  0.00    +0.034 S 
ATOM      4  O   UNL     1      23.520  -2.013  -9.947  0.00  0.00    -0.158 OA
ATOM      5  O   UNL     1      23.477  -0.853 -12.100  0.00  0.00    -0.158 OA
BRANCH   3   6
ATOM      6  C   UNL     1      21.879   0.110 -10.156  0.00  0.00    +0.221 C 
BRANCH   6   7
ATOM      7  C   UNL     1      20.710  -0.714 -10.641  0.00  0.00    -0.007 A 
ATOM      8  C   UNL     1      20.948  -2.013 -11.124  0.00  0.00    +0.009 A 
ATOM      9  C   UNL     1      19.890  -2.816 -11.556  0.00  0.00    +0.039 A 
ATOM     10  C   UNL     1      18.581  -2.336 -11.503  0.00  0.00    +0.125 A 
ATOM     11  F   UNL     1      17.556  -3.120 -11.922  0.00  0.00    -0.205 F 
ATOM     12  C   UNL     1      18.325  -1.053 -11.015  0.00  0.00    +0.057 A 
ATOM     13  C   UNL     1      19.378  -0.237 -10.579  0.00  0.00    +0.059 A 
BRANCH  13  14
ATOM     14  C   UNL     1      19.068   1.077 -10.068  0.00  0.00    +0.100 C 
ATOM     15  N   UNL     1      18.820   2.131  -9.660  0.00  0.00    -0.191 NA
ENDBRANCH  13  14
ENDBRANCH   6   7
ENDBRANCH   3   6
ENDBRANCH   1   3
BRANCH   1  16
ATOM     16  C   UNL     1      25.281   1.098 -11.215  0.00  0.00    +0.109 C 
BRANCH  16  20
ATOM     17  C   UNL     1      28.476   1.339  -8.422  0.00  0.00    -0.011 C 
ATOM     18  C   UNL     1      28.902   1.005  -9.879  0.00  0.00    +0.004 C 
ATOM     19  C   UNL     1      27.710   0.564 -10.735  0.00  0.00    +0.005 C 
ATOM     20  C   UNL     1      26.659   1.695 -10.869  0.00  0.00    +0.005 C 
ATOM     21  C   UNL     1      26.595   2.598  -9.605  0.00  0.00    +0.005 C 
ATOM     22  C   UNL     1      27.008   1.840  -8.339  0.00  0.00    +0.004 C 
BRANCH  17  23
ATOM     23  C   UNL     1      28.713   0.123  -7.492  0.00  0.00    +0.003 C 
BRANCH  23  24
ATOM     24  C   UNL     1      27.465  -0.746  -7.229  0.00  0.00    +0.000 C 
BRANCH  24  26
ATOM     25  C   UNL     1      27.435  -2.353  -9.219  0.00  0.00    +0.004 C 
ATOM     26  C   UNL     1      27.577  -2.206  -7.705  0.00  0.00    -0.003 C 
ENDBRANCH  24  26
ENDBRANCH  23  24
ENDBRANCH  17  23
ENDBRANCH  16  20
ENDBRANCH   1  16
TORSDOF 9
