REMARK  Name = 
REMARK  7 active torsions:
REMARK  status: ('A' for Active; 'I' for Inactive)
REMARK    1  A    between atoms: C_1  and  N_2
REMARK    2  A    between atoms: N_2  and  C_3
REMARK    3  A    between atoms: N_2  and  S_4
REMARK    4  A    between atoms: S_4  and  C_7
REMARK    5  A    between atoms: C_12  and  N_13
REMARK    6  A    between atoms: N_16  and  C_17
REMARK    7  A    between atoms: C_19  and  C_20
REMARK                            x       y       z     vdW  Elec       q    Type
REMARK                         _______ _______ _______ _____ _____    ______ ____
ROOT
ATOM      1  N   UNL     1      23.649   0.107 -10.247  0.00  0.00    -0.268 N 
ATOM      2  C   UNL     1      22.774  -0.884 -10.799  0.00  0.00    +0.304 C 
ATOM      3  O   UNL     1      22.935  -1.279 -11.985  0.00  0.00    -0.252 OA
ATOM      4  N   UNL     1      21.709  -1.413 -10.003  0.00  0.00    -0.296 N 
ATOM      5  H   UNL     1      23.381   0.565  -9.351  0.00  0.00    +0.156 HD
ATOM      6  H   UNL     1      21.647  -1.123  -9.002  0.00  0.00    +0.151 HD
ENDROOT
BRANCH   1  12
ATOM      7  C   UNL     1      26.132   0.220 -10.210  0.00  0.00    +0.127 A 
ATOM      8  C   UNL     1      27.331   0.520 -10.878  0.00  0.00    +0.030 A 
ATOM      9  C   UNL     1      27.313   1.066 -12.164  0.00  0.00    +0.002 A 
ATOM     10  C   UNL     1      26.096   1.317 -12.799  0.00  0.00    +0.002 A 
ATOM     11  C   UNL     1      24.895   1.015 -12.154  0.00  0.00    +0.025 A 
ATOM     12  C   UNL     1      24.897   0.465 -10.859  0.00  0.00    +0.061 A 
BRANCH   7  13
ATOM     13  S   UNL     1      26.237  -0.407  -8.556  0.00  0.00    +0.062 S 
ATOM     14  O   UNL     1      27.028   0.571  -7.734  0.00  0.00    -0.153 OA
ATOM     15  O   UNL     1      24.872  -0.534  -7.940  0.00  0.00    -0.153 OA
BRANCH  13  17
ATOM     16  C   UNL     1      27.425  -2.307  -7.175  0.00  0.00    +0.131 C 
ATOM     17  N   UNL     1      27.044  -1.956  -8.548  0.00  0.00    -0.183 NA
ATOM     18  C   UNL     1      28.240  -1.883  -9.394  0.00  0.00    +0.131 C 
ENDBRANCH  13  17
ENDBRANCH   7  13
ENDBRANCH   1  12
BRANCH   4  19
ATOM     19  C   UNL     1      20.727  -2.339 -10.570  0.00  0.00    +0.083 C 
ATOM     20  C   UNL     1      19.590  -2.678  -9.617  0.00  0.00    +0.033 C 
ATOM     21  C   UNL     1      19.331  -1.761 -10.812  0.00  0.00    +0.041 C 
BRANCH  21  22
ATOM     22  C   UNL     1      19.125  -0.302 -10.485  0.00  0.00    -0.040 A 
ATOM     23  C   UNL     1      19.311   0.688 -11.465  0.00  0.00    +0.004 A 
ATOM     24  C   UNL     1      19.147   2.038 -11.142  0.00  0.00    +0.003 A 
ATOM     25  C   UNL     1      18.827   2.410  -9.835  0.00  0.00    +0.038 A 
ATOM     26  C   UNL     1      18.692   1.436  -8.842  0.00  0.00    +0.124 A 
ATOM     27  F   UNL     1      18.421   1.804  -7.568  0.00  0.00    -0.205 F 
ATOM     28  C   UNL     1      18.838   0.083  -9.165  0.00  0.00    +0.042 A 
ENDBRANCH  21  22
ENDBRANCH   4  19
TORSDOF 5
