REMARK  Name = 
REMARK  8 active torsions:
REMARK  status: ('A' for Active; 'I' for Inactive)
REMARK    1  A    between atoms: C_1  and  S_2
REMARK    2  A    between atoms: S_2  and  C_5
REMARK    3  A    between atoms: C_10  and  S_11
REMARK    4  A    between atoms: S_11  and  N_14
REMARK    5  A    between atoms: N_14  and  C_15
REMARK    6  A    between atoms: C_15  and  C_16
REMARK    7  A    between atoms: C_21  and  O_22
REMARK    8  A    between atoms: O_22  and  C_23
REMARK                            x       y       z     vdW  Elec       q    Type
REMARK                         _______ _______ _______ _____ _____    ______ ____
ROOT
ATOM      1  N   UNL     1      23.301  -0.385  -9.133  0.00  0.00    -0.185 NA
ATOM      2  H   UNL     1      23.553   0.607  -9.351  0.00  0.00    +0.148 HD
ENDROOT
BRANCH   1   3
ATOM      3  S   UNL     1      22.339  -0.954 -10.464  0.00  0.00    +0.061 S 
ATOM      4  O   UNL     1      22.033  -2.411 -10.249  0.00  0.00    -0.153 OA
ATOM      5  O   UNL     1      23.116  -0.824 -11.744  0.00  0.00    -0.153 OA
BRANCH   3  11
ATOM      6  C   UNL     1      19.585  -0.613 -10.963  0.00  0.00    +0.114 A 
ATOM      7  C   UNL     1      18.454   0.215 -11.080  0.00  0.00    +0.029 A 
ATOM      8  C   UNL     1      18.534   1.582 -10.816  0.00  0.00    +0.002 A 
ATOM      9  C   UNL     1      19.746   2.149 -10.435  0.00  0.00    +0.002 A 
ATOM     10  C   UNL     1      20.885   1.352 -10.326  0.00  0.00    +0.030 A 
ATOM     11  C   UNL     1      20.830  -0.027 -10.593  0.00  0.00    +0.130 A 
BRANCH   6  13
ATOM     12  C   UNL     1      17.789  -2.720 -11.990  0.00  0.00    +0.200 C 
ATOM     13  S   UNL     1      19.398  -2.346 -11.319  0.00  0.00    -0.004 S 
ATOM     14  O   UNL     1      20.434  -2.771 -12.320  0.00  0.00    -0.170 OA
ATOM     15  O   UNL     1      19.546  -3.160 -10.066  0.00  0.00    -0.170 OA
ENDBRANCH   6  13
ENDBRANCH   3  11
ENDBRANCH   1   3
BRANCH   1  16
ATOM     16  C   UNL     1      24.537  -1.168  -9.049  0.00  0.00    +0.144 C 
BRANCH  16  17
ATOM     17  C   UNL     1      25.687  -0.275  -8.652  0.00  0.00    +0.010 A 
ATOM     18  C   UNL     1      26.446  -0.591  -7.511  0.00  0.00    +0.008 A 
ATOM     19  C   UNL     1      27.475   0.254  -7.089  0.00  0.00    +0.001 A 
ATOM     20  C   UNL     1      27.749   1.428  -7.790  0.00  0.00    +0.004 A 
ATOM     21  C   UNL     1      26.998   1.759  -8.920  0.00  0.00    +0.046 A 
ATOM     22  C   UNL     1      25.974   0.913  -9.362  0.00  0.00    +0.133 A 
BRANCH  22  23
ATOM     23  O   UNL     1      25.239   1.282 -10.494  0.00  0.00    -0.456 OA
BRANCH  23  24
ATOM     24  C   UNL     1      25.686   1.114 -11.812  0.00  0.00    +0.128 A 
ATOM     25  C   UNL     1      24.879   1.426 -12.925  0.00  0.00    +0.046 A 
ATOM     26  C   UNL     1      25.371   1.246 -14.221  0.00  0.00    +0.004 A 
ATOM     27  C   UNL     1      26.662   0.751 -14.418  0.00  0.00    +0.000 A 
ATOM     28  C   UNL     1      27.464   0.432 -13.319  0.00  0.00    +0.004 A 
ATOM     29  C   UNL     1      26.976   0.611 -12.022  0.00  0.00    +0.046 A 
ENDBRANCH  23  24
ENDBRANCH  22  23
ENDBRANCH  16  17
ENDBRANCH   1  16
TORSDOF 7
