REMARK  Name = 
REMARK  5 active torsions:
REMARK  status: ('A' for Active; 'I' for Inactive)
REMARK    1  A    between atoms: C_2  and  C_3
REMARK    2  A    between atoms: C_9  and  C_10
REMARK    3  A    between atoms: C_10  and  S_11
REMARK    4  A    between atoms: S_11  and  N_14
REMARK    5  A    between atoms: N_14  and  C_15
REMARK                            x       y       z     vdW  Elec       q    Type
REMARK                         _______ _______ _______ _____ _____    ______ ____
ROOT
ATOM      1  S   UNL     1      23.352  -0.731 -10.605  0.00  0.00    +0.034 S 
ATOM      2  O   UNL     1      23.390  -0.889 -12.100  0.00  0.00    -0.158 OA
ATOM      3  O   UNL     1      23.406  -2.092  -9.972  0.00  0.00    -0.158 OA
ENDROOT
BRANCH   1   4
ATOM      4  N   UNL     1      24.729   0.183 -10.066  0.00  0.00    -0.190 NA
ATOM      5  H   UNL     1      24.425   0.701  -9.211  0.00  0.00    +0.148 HD
BRANCH   4   6
ATOM      6  C   UNL     1      25.107   1.182 -11.071  0.00  0.00    +0.090 C 
ATOM      7  C   UNL     1      25.666   0.575 -12.362  0.00  0.00    +0.040 C 
ATOM      8  C   UNL     1      25.529   0.539 -13.852  0.00  0.00    +0.036 C 
ATOM      9  C   UNL     1      27.050   0.623 -14.213  0.00  0.00    +0.160 C 
ATOM     10  O   UNL     1      27.764   1.091 -13.060  0.00  0.00    -0.376 OA
ATOM     11  C   UNL     1      26.717   1.655 -12.341  0.00  0.00    +0.131 C 
ATOM     12  C   UNL     1      26.527   1.805 -10.834  0.00  0.00    +0.015 C 
ATOM     13  C   UNL     1      27.523   0.998  -9.991  0.00  0.00    +0.011 C 
ATOM     14  C   UNL     1      27.578   1.732  -8.665  0.00  0.00    +0.001 C 
ATOM     15  C   UNL     1      27.338   3.201  -8.996  0.00  0.00    +0.001 C 
ATOM     16  C   UNL     1      26.510   3.237 -10.280  0.00  0.00    +0.011 C 
ENDBRANCH   4   6
ENDBRANCH   1   4
BRANCH   1  17
ATOM     17  C   UNL     1      21.832   0.083 -10.130  0.00  0.00    +0.221 C 
BRANCH  17  24
ATOM     18  C   UNL     1      19.314  -0.220 -10.476  0.00  0.00    +0.059 A 
ATOM     19  C   UNL     1      18.235  -1.008 -10.902  0.00  0.00    +0.057 A 
ATOM     20  C   UNL     1      18.458  -2.277 -11.443  0.00  0.00    +0.125 A 
ATOM     21  F   UNL     1      17.408  -3.032 -11.852  0.00  0.00    -0.205 F 
ATOM     22  C   UNL     1      19.758  -2.769 -11.558  0.00  0.00    +0.039 A 
ATOM     23  C   UNL     1      20.841  -1.994 -11.137  0.00  0.00    +0.009 A 
ATOM     24  C   UNL     1      20.637  -0.709 -10.603  0.00  0.00    -0.007 A 
BRANCH  18  26
ATOM     25  N   UNL     1      18.818   2.120  -9.454  0.00  0.00    -0.191 NA
ATOM     26  C   UNL     1      19.039   1.078  -9.909  0.00  0.00    +0.100 C 
ENDBRANCH  18  26
ENDBRANCH  17  24
ENDBRANCH   1  17
TORSDOF 5
