REMARK  Name = 
REMARK  6 active torsions:
REMARK  status: ('A' for Active; 'I' for Inactive)
REMARK    1  A    between atoms: C_1  and  N_2
REMARK    2  A    between atoms: N_2  and  C_16
REMARK    3  A    between atoms: C_3  and  C_5
REMARK    4  A    between atoms: C_8  and  S_9
REMARK    5  A    between atoms: S_9  and  C_10
REMARK    6  A    between atoms: C_21  and  C_22
REMARK                            x       y       z     vdW  Elec       q    Type
REMARK                         _______ _______ _______ _____ _____    ______ ____
ROOT
ATOM      1  C   UNL     1      25.395  -1.238  -9.874  0.00  0.00    +0.132 C 
ATOM      2  N   UNL     1      25.267  -0.407 -11.079  0.00  0.00    -0.297 N 
ATOM      3  C   UNL     1      24.048   0.346 -11.268  0.00  0.00    +0.247 C 
ATOM      4  O   UNL     1      24.094   1.513 -11.738  0.00  0.00    -0.270 OA
ENDROOT
BRANCH   3   5
ATOM      5  C   UNL     1      22.730  -0.222 -10.914  0.00  0.00    +0.038 A 
ATOM      6  C   UNL     1      22.554  -1.612 -10.871  0.00  0.00    +0.015 A 
ATOM      7  C   UNL     1      21.314  -2.156 -10.530  0.00  0.00    +0.029 A 
ATOM      8  C   UNL     1      20.232  -1.323 -10.209  0.00  0.00    +0.102 A 
ATOM      9  C   UNL     1      20.410   0.079 -10.237  0.00  0.00    +0.043 A 
ATOM     10 BR   UNL     1      19.000   1.313  -9.827  0.00  0.00    -0.048 Br
ATOM     11  C   UNL     1      21.658   0.615 -10.580  0.00  0.00    +0.030 A 
BRANCH   8  12
ATOM     12  S   UNL     1      18.675  -2.056  -9.796  0.00  0.00    -0.005 S 
ATOM     13  C   UNL     1      17.615  -2.064 -11.226  0.00  0.00    +0.200 C 
ATOM     14  O   UNL     1      18.879  -3.476  -9.344  0.00  0.00    -0.170 OA
ATOM     15  O   UNL     1      18.024  -1.292  -8.677  0.00  0.00    -0.170 OA
ENDBRANCH   8  12
ENDBRANCH   3   5
BRANCH   2  16
ATOM     16  C   UNL     1      26.403  -0.328 -12.029  0.00  0.00    +0.083 C 
ATOM     17  C   UNL     1      25.932  -0.528 -13.492  0.00  0.00    +0.023 C 
ATOM     18  C   UNL     1      27.035  -0.131 -14.478  0.00  0.00    +0.002 C 
ATOM     19  C   UNL     1      27.404   1.365 -14.363  0.00  0.00    +0.001 C 
ATOM     20  C   UNL     1      27.093   1.976 -12.980  0.00  0.00    +0.010 C 
ATOM     21  C   UNL     1      27.295   0.949 -11.845  0.00  0.00    +0.039 C 
BRANCH  21  22
ATOM     22  C   UNL     1      27.231   1.543 -10.442  0.00  0.00    -0.043 A 
ATOM     23  C   UNL     1      27.827   0.839  -9.378  0.00  0.00    +0.004 A 
ATOM     24  C   UNL     1      27.749   1.324  -8.069  0.00  0.00    +0.000 A 
ATOM     25  C   UNL     1      27.074   2.517  -7.803  0.00  0.00    +0.000 A 
ATOM     26  C   UNL     1      26.477   3.227  -8.847  0.00  0.00    +0.000 A 
ATOM     27  C   UNL     1      26.553   2.748 -10.158  0.00  0.00    +0.004 A 
ENDBRANCH  21  22
ENDBRANCH   2  16
TORSDOF 4
