REMARK  Name = 
REMARK  8 active torsions:
REMARK  status: ('A' for Active; 'I' for Inactive)
REMARK    1  A    between atoms: C_1  and  C_2
REMARK    2  A    between atoms: C_7  and  C_8
REMARK    3  A    between atoms: C_10  and  N_11
REMARK    4  A    between atoms: N_11  and  C_12
REMARK    5  A    between atoms: N_11  and  S_15
REMARK    6  A    between atoms: S_15  and  C_18
REMARK    7  A    between atoms: C_21  and  S_22
REMARK    8  A    between atoms: S_22  and  C_23
REMARK                            x       y       z     vdW  Elec       q    Type
REMARK                         _______ _______ _______ _____ _____    ______ ____
ROOT
ATOM      1  N   UNL     1      25.137   1.618 -11.647  0.00  0.00    -0.170 NA
ENDROOT
BRANCH   1   4
ATOM      2  C   UNL     1      28.104   1.247 -10.311  0.00  0.00    +0.022 C 
ATOM      3  C   UNL     1      27.126   2.420 -10.274  0.00  0.00    +0.029 C 
ATOM      4  C   UNL     1      26.568   2.007 -11.647  0.00  0.00    +0.081 C 
ATOM      5  C   UNL     1      27.519   0.803 -11.649  0.00  0.00    +0.029 C 
BRANCH   2  12
ATOM      6  C   UNL     1      27.515   2.111  -7.481  0.00  0.00    +0.044 C 
ATOM      7  C   UNL     1      27.647   0.655  -7.845  0.00  0.00    -0.047 A 
ATOM      8  C   UNL     1      27.487  -0.311  -6.835  0.00  0.00    +0.003 A 
ATOM      9  C   UNL     1      27.604  -1.670  -7.123  0.00  0.00    +0.000 A 
ATOM     10  C   UNL     1      27.886  -2.087  -8.420  0.00  0.00    +0.000 A 
ATOM     11  C   UNL     1      28.048  -1.147  -9.439  0.00  0.00    +0.004 A 
ATOM     12  C   UNL     1      27.929   0.237  -9.176  0.00  0.00    -0.041 A 
ENDBRANCH   2  12
ENDBRANCH   1   4
BRANCH   1  13
ATOM     13  C   UNL     1      24.762   1.140 -12.990  0.00  0.00    +0.080 C 
ATOM     14  C   UNL     1      25.865   1.281 -14.035  0.00  0.00    +0.022 C 
ATOM     15  C   UNL     1      25.545  -0.080 -13.458  0.00  0.00    +0.022 C 
ENDBRANCH   1  13
BRANCH   1  16
ATOM     16  S   UNL     1      24.925   0.272 -10.537  0.00  0.00    +0.061 S 
ATOM     17  O   UNL     1      25.815  -0.876 -10.924  0.00  0.00    -0.153 OA
ATOM     18  O   UNL     1      25.288   0.695  -9.140  0.00  0.00    -0.153 OA
BRANCH  16  19
ATOM     19  C   UNL     1      23.264  -0.314 -10.569  0.00  0.00    +0.108 A 
ATOM     20  C   UNL     1      23.015  -1.679 -10.756  0.00  0.00    +0.030 A 
ATOM     21  C   UNL     1      21.702  -2.151 -10.838  0.00  0.00    +0.032 A 
ATOM     22  C   UNL     1      20.623  -1.260 -10.731  0.00  0.00    +0.123 A 
ATOM     23  C   UNL     1      20.873   0.108 -10.542  0.00  0.00    +0.150 A 
ATOM     24  F   UNL     1      19.846   0.991 -10.452  0.00  0.00    -0.203 F 
ATOM     25  C   UNL     1      22.187   0.578 -10.459  0.00  0.00    +0.068 A 
BRANCH  22  26
ATOM     26  S   UNL     1      18.969  -1.851 -10.873  0.00  0.00    -0.003 S 
ATOM     27  C   UNL     1      18.920  -3.186 -12.048  0.00  0.00    +0.200 C 
ATOM     28  O   UNL     1      18.480  -2.350  -9.541  0.00  0.00    -0.170 OA
ATOM     29  O   UNL     1      18.071  -0.737 -11.330  0.00  0.00    -0.170 OA
ENDBRANCH  22  26
ENDBRANCH  16  19
ENDBRANCH   1  16
TORSDOF 6
