REMARK  Name = 
REMARK  12 active torsions:
REMARK  status: ('A' for Active; 'I' for Inactive)
REMARK    1  A    between atoms: C_1  and  C_2
REMARK    2  A    between atoms: C_2  and  C_3
REMARK    3  A    between atoms: C_3  and  C_4
REMARK    4  A    between atoms: C_4  and  N_5
REMARK    5  A    between atoms: C_4  and  C_21
REMARK    6  A    between atoms: N_8  and  C_9
REMARK    7  A    between atoms: C_9  and  C_10
REMARK    8  A    between atoms: C_10  and  C_11
REMARK    9  A    between atoms: C_16  and  S_17
REMARK   10  A    between atoms: S_17  and  C_18
REMARK   11  A    between atoms: C_21  and  O_22
REMARK   12  A    between atoms: C_21  and  C_23
REMARK                            x       y       z     vdW  Elec       q    Type
REMARK                         _______ _______ _______ _____ _____    ______ ____
ROOT
ATOM      1  N   UNL     1      25.594   0.728  -9.123  0.00  0.00    -0.294 N 
ATOM      2  C   UNL     1      24.785  -0.368  -9.582  0.00  0.00    +0.300 C 
ATOM      3  O   UNL     1      25.320  -1.409 -10.050  0.00  0.00    -0.253 OA
ATOM      4  N   UNL     1      23.358  -0.267  -9.520  0.00  0.00    -0.299 N 
ATOM      5  H   UNL     1      25.099   1.595  -8.816  0.00  0.00    +0.151 HD
ATOM      6  H   UNL     1      22.941   0.600  -9.116  0.00  0.00    +0.150 HD
ENDROOT
BRANCH   1   7
ATOM      7  C   UNL     1      27.064   0.739  -9.057  0.00  0.00    +0.107 C 
BRANCH   7   8
ATOM      8  C   UNL     1      27.583   1.128  -7.649  0.00  0.00    +0.025 C 
BRANCH   8  10
ATOM      9  C   UNL     1      27.729  -1.415  -7.442  0.00  0.00    +0.004 C 
ATOM     10  C   UNL     1      27.813  -0.074  -6.716  0.00  0.00    -0.001 C 
ENDBRANCH   8  10
ENDBRANCH   7   8
BRANCH   7  11
ATOM     11  C   UNL     1      27.659   1.606 -10.197  0.00  0.00    +0.165 C 
BRANCH  11  12
ATOM     12  C   UNL     1      26.910   1.393 -11.499  0.00  0.00    -0.017 A 
ATOM     13  C   UNL     1      25.717   2.100 -11.738  0.00  0.00    +0.006 A 
ATOM     14  C   UNL     1      24.998   1.892 -12.919  0.00  0.00    +0.000 A 
ATOM     15  C   UNL     1      25.454   0.973 -13.866  0.00  0.00    +0.000 A 
ATOM     16  C   UNL     1      26.628   0.255 -13.632  0.00  0.00    +0.000 A 
ATOM     17  C   UNL     1      27.353   0.459 -12.454  0.00  0.00    +0.006 A 
ENDBRANCH  11  12
BRANCH  11  18
ATOM     18  O   UNL     1      29.029   1.346 -10.363  0.00  0.00    -0.385 OA
ATOM     19  H   UNL     1      29.283   1.697 -11.257  0.00  0.00    +0.210 HD
ENDBRANCH  11  18
ENDBRANCH   7  11
ENDBRANCH   1   7
BRANCH   4  20
ATOM     20  C   UNL     1      22.495  -1.361  -9.969  0.00  0.00    +0.110 C 
BRANCH  20  21
ATOM     21  C   UNL     1      21.906  -1.090 -11.363  0.00  0.00    +0.056 C 
BRANCH  21  22
ATOM     22  C   UNL     1      20.446  -1.486 -11.441  0.00  0.00    -0.021 A 
ATOM     23  C   UNL     1      20.132  -2.765 -11.938  0.00  0.00    +0.005 A 
ATOM     24  C   UNL     1      18.810  -3.204 -11.998  0.00  0.00    +0.000 A 
ATOM     25  C   UNL     1      17.778  -2.374 -11.568  0.00  0.00    +0.002 A 
ATOM     26  C   UNL     1      18.065  -1.100 -11.079  0.00  0.00    +0.027 A 
ATOM     27  C   UNL     1      19.390  -0.638 -11.001  0.00  0.00    +0.091 A 
BRANCH  27  28
ATOM     28  S   UNL     1      19.653   1.022 -10.427  0.00  0.00    -0.006 S 
ATOM     29  C   UNL     1      18.779   1.266  -8.895  0.00  0.00    +0.200 C 
ATOM     30  O   UNL     1      21.119   1.246 -10.180  0.00  0.00    -0.170 OA
ATOM     31  O   UNL     1      19.195   2.028 -11.443  0.00  0.00    -0.170 OA
ENDBRANCH  27  28
ENDBRANCH  21  22
ENDBRANCH  20  21
ENDBRANCH   4  20
TORSDOF 10
