REMARK  Name = 
REMARK  8 active torsions:
REMARK  status: ('A' for Active; 'I' for Inactive)
REMARK    1  A    between atoms: C_1  and  C_2
REMARK    2  A    between atoms: C_5  and  C_6
REMARK    3  A    between atoms: C_12  and  O_13
REMARK    4  A    between atoms: C_14  and  C_15
REMARK    5  A    between atoms: C_15  and  C_16
REMARK    6  A    between atoms: C_16  and  C_17
REMARK    7  A    between atoms: C_24  and  S_25
REMARK    8  A    between atoms: S_25  and  C_26
REMARK                            x       y       z     vdW  Elec       q    Type
REMARK                         _______ _______ _______ _____ _____    ______ ____
ROOT
ATOM      1  C   UNL     1      24.364  -0.458 -10.487  0.00  0.00    +0.247 C 
ATOM      2  O   UNL     1      24.949  -0.955  -9.491  0.00  0.00    -0.270 OA
ATOM      3  N   UNL     1      25.092   0.407 -11.390  0.00  0.00    -0.292 N 
ATOM      4  C   UNL     1      24.411   1.469 -12.151  0.00  0.00    +0.108 C 
ATOM      5  C   UNL     1      24.718   1.335 -13.647  0.00  0.00    +0.021 C 
ATOM      6  C   UNL     1      26.227   1.209 -13.904  0.00  0.00    +0.035 C 
ATOM      7  C   UNL     1      26.855   0.071 -13.077  0.00  0.00    +0.135 C 
ATOM      8  C   UNL     1      26.548   0.237 -11.568  0.00  0.00    +0.105 C 
ENDROOT
BRANCH   1  13
ATOM      9  C   UNL     1      18.810  -1.889 -11.365  0.00  0.00    +0.046 C 
ATOM     10  C   UNL     1      20.239  -1.477 -11.132  0.00  0.00    -0.026 A 
ATOM     11  C   UNL     1      21.248  -2.443 -11.277  0.00  0.00    +0.006 A 
ATOM     12  C   UNL     1      22.587  -2.114 -11.067  0.00  0.00    +0.013 A 
ATOM     13  C   UNL     1      22.947  -0.810 -10.715  0.00  0.00    +0.039 A 
ATOM     14  C   UNL     1      21.945   0.151 -10.526  0.00  0.00    +0.040 A 
ATOM     15  C   UNL     1      20.592  -0.167 -10.723  0.00  0.00    +0.091 A 
BRANCH  15  16
ATOM     16  S   UNL     1      19.390   1.114 -10.483  0.00  0.00    -0.006 S 
ATOM     17  C   UNL     1      18.543   0.854  -8.942  0.00  0.00    +0.200 C 
ATOM     18  O   UNL     1      20.042   2.468 -10.485  0.00  0.00    -0.170 OA
ATOM     19  O   UNL     1      18.385   1.079 -11.600  0.00  0.00    -0.170 OA
ENDBRANCH  15  16
ENDBRANCH   1  13
BRANCH   7  20
ATOM     20  O   UNL     1      26.350  -1.158 -13.533  0.00  0.00    -0.390 OA
ATOM     21  H   UNL     1      25.369  -1.142 -13.379  0.00  0.00    +0.210 HD
ENDBRANCH   7  20
BRANCH   8  22
ATOM     22  C   UNL     1      27.343   1.421 -10.958  0.00  0.00    +0.030 C 
BRANCH  22  23
ATOM     23  C   UNL     1      28.550   0.989 -10.103  0.00  0.00    +0.037 C 
BRANCH  23  24
ATOM     24  C   UNL     1      28.222  -0.072  -9.075  0.00  0.00    -0.047 A 
ATOM     25  C   UNL     1      28.116  -1.429  -9.442  0.00  0.00    +0.003 A 
ATOM     26  C   UNL     1      27.849  -2.405  -8.476  0.00  0.00    +0.000 A 
ATOM     27  C   UNL     1      27.712  -2.044  -7.133  0.00  0.00    +0.000 A 
ATOM     28  C   UNL     1      27.852  -0.708  -6.753  0.00  0.00    +0.000 A 
ATOM     29  C   UNL     1      28.115   0.273  -7.716  0.00  0.00    +0.003 A 
ENDBRANCH  23  24
ENDBRANCH  22  23
ENDBRANCH   8  22
TORSDOF 6
