REMARK  Name = 
REMARK  8 active torsions:
REMARK  status: ('A' for Active; 'I' for Inactive)
REMARK    1  A    between atoms: C_1  and  S_2
REMARK    2  A    between atoms: S_2  and  C_5
REMARK    3  A    between atoms: C_8  and  C_9
REMARK    4  A    between atoms: C_16  and  C_17
REMARK    5  A    between atoms: C_17  and  C_18
REMARK    6  A    between atoms: C_18  and  O_19
REMARK    7  A    between atoms: C_18  and  C_20
REMARK    8  A    between atoms: C_26  and  N_27
REMARK                            x       y       z     vdW  Elec       q    Type
REMARK                         _______ _______ _______ _____ _____    ______ ____
ROOT
ATOM      1  C   UNL     1      24.233  -0.220 -10.279  0.00  0.00    +0.247 C 
ATOM      2  O   UNL     1      24.803  -0.488  -9.186  0.00  0.00    -0.270 OA
ATOM      3  N   UNL     1      24.947   0.489 -11.323  0.00  0.00    -0.290 N 
ATOM      4  C   UNL     1      24.344   0.535 -12.670  0.00  0.00    +0.136 C 
ATOM      5  C   UNL     1      25.311   1.026 -13.752  0.00  0.00    +0.179 C 
ATOM      6  O   UNL     1      26.632   0.635 -13.460  0.00  0.00    -0.376 OA
ATOM      7  C   UNL     1      27.079   1.373 -12.348  0.00  0.00    +0.182 C 
ATOM      8  C   UNL     1      26.332   0.948 -11.064  0.00  0.00    +0.105 C 
ENDROOT
BRANCH   1  12
ATOM      9  C   UNL     1      20.168  -1.486 -10.801  0.00  0.00    +0.118 A 
ATOM     10  C   UNL     1      21.232  -2.375 -11.025  0.00  0.00    +0.030 A 
ATOM     11  C   UNL     1      22.555  -1.963 -10.851  0.00  0.00    +0.015 A 
ATOM     12  C   UNL     1      22.837  -0.653 -10.456  0.00  0.00    +0.039 A 
ATOM     13  C   UNL     1      21.786   0.233 -10.193  0.00  0.00    +0.047 A 
ATOM     14  C   UNL     1      20.448  -0.171 -10.347  0.00  0.00    +0.152 A 
BRANCH   9  16
ATOM     15  C   UNL     1      18.472  -3.250 -12.439  0.00  0.00    +0.200 C 
ATOM     16  S   UNL     1      18.514  -2.027 -11.143  0.00  0.00    -0.004 S 
ATOM     17  O   UNL     1      17.909  -2.615  -9.899  0.00  0.00    -0.170 OA
ATOM     18  O   UNL     1      17.685  -0.859 -11.601  0.00  0.00    -0.170 OA
ENDBRANCH   9  16
BRANCH  14  19
ATOM     19  N   UNL     1      19.399   0.757 -10.023  0.00  0.00    +0.058 N 
ATOM     20  O   UNL     1      18.751   0.621  -8.965  0.00  0.00    -0.126 OA
ATOM     21  O   UNL     1      18.936   1.636 -10.974  0.00  0.00    -0.126 OA
ENDBRANCH  14  19
ENDBRANCH   1  12
BRANCH   8  22
ATOM     22  C   UNL     1      26.420   2.036  -9.950  0.00  0.00    +0.061 C 
BRANCH  22  23
ATOM     23  C   UNL     1      27.088   1.659  -8.605  0.00  0.00    +0.153 C 
BRANCH  23  24
ATOM     24  C   UNL     1      27.497   0.215  -8.524  0.00  0.00    +0.018 A 
ATOM     25  C   UNL     1      28.376  -0.425  -9.391  0.00  0.00    +0.014 A 
ATOM     26  C   UNL     1      28.538  -1.786  -9.112  0.00  0.00    +0.008 A 
ATOM     27  C   UNL     1      27.779  -2.229  -8.037  0.00  0.00    +0.045 A 
ATOM     28  S   UNL     1      26.904  -0.925  -7.436  0.00  0.00    -0.099 S 
ENDBRANCH  23  24
BRANCH  23  29
ATOM     29  O   UNL     1      28.176   2.504  -8.338  0.00  0.00    -0.387 OA
ATOM     30  H   UNL     1      27.986   2.962  -7.477  0.00  0.00    +0.210 HD
ENDBRANCH  23  29
ENDBRANCH  22  23
ENDBRANCH   8  22
TORSDOF 7
