REMARK  Name = 
REMARK  7 active torsions:
REMARK  status: ('A' for Active; 'I' for Inactive)
REMARK    1  A    between atoms: C_2  and  C_3
REMARK    2  A    between atoms: C_9  and  S_10
REMARK    3  A    between atoms: S_10  and  N_13
REMARK    4  A    between atoms: N_13  and  C_14
REMARK    5  A    between atoms: N_16  and  C_17
REMARK    6  A    between atoms: C_17  and  C_18
REMARK    7  A    between atoms: C_25  and  C_26
REMARK                            x       y       z     vdW  Elec       q    Type
REMARK                         _______ _______ _______ _____ _____    ______ ____
ROOT
ATOM      1  C   UNL     1      24.875  -0.042 -11.243  0.00  0.00    +0.099 C 
ATOM      2  C   UNL     1      25.021   0.834 -12.479  0.00  0.00    +0.105 C 
ATOM      3  N   UNL     1      26.453   1.128 -12.645  0.00  0.00    -0.296 NA
ATOM      4  C   UNL     1      27.179   0.014 -11.998  0.00  0.00    +0.094 C 
ATOM      5  C   UNL     1      26.156  -0.872 -11.277  0.00  0.00    +0.053 C 
ENDROOT
BRANCH   5   6
ATOM      6  C   UNL     1      26.603  -1.316  -9.895  0.00  0.00    -0.041 A 
ATOM      7  C   UNL     1      27.772  -2.082  -9.713  0.00  0.00    +0.004 A 
ATOM      8  C   UNL     1      28.176  -2.464  -8.430  0.00  0.00    +0.000 A 
ATOM      9  C   UNL     1      27.423  -2.087  -7.317  0.00  0.00    +0.000 A 
ATOM     10  C   UNL     1      26.265  -1.323  -7.484  0.00  0.00    +0.000 A 
ATOM     11  C   UNL     1      25.857  -0.938  -8.763  0.00  0.00    +0.004 A 
ENDBRANCH   5   6
BRANCH   1  12
ATOM     12  N   UNL     1      23.668  -0.882 -11.325  0.00  0.00    -0.185 NA
ATOM     13  H   UNL     1      23.852  -1.797 -10.850  0.00  0.00    +0.148 HD
BRANCH  12  14
ATOM     14  S   UNL     1      22.345  -0.168 -10.447  0.00  0.00    +0.060 S 
ATOM     15  O   UNL     1      22.240   1.292 -10.790  0.00  0.00    -0.153 OA
ATOM     16  O   UNL     1      22.635  -0.274  -8.976  0.00  0.00    -0.153 OA
BRANCH  14  23
ATOM     17  C   UNL     1      19.551  -0.423 -10.597  0.00  0.00    +0.081 A 
ATOM     18  C   UNL     1      18.393  -1.151 -10.907  0.00  0.00    +0.059 A 
ATOM     19  C   UNL     1      18.487  -2.453 -11.403  0.00  0.00    +0.125 A 
ATOM     20  F   UNL     1      17.362  -3.147 -11.704  0.00  0.00    -0.205 F 
ATOM     21  C   UNL     1      19.739  -3.037 -11.594  0.00  0.00    +0.040 A 
ATOM     22  C   UNL     1      20.900  -2.324 -11.289  0.00  0.00    +0.032 A 
ATOM     23  C   UNL     1      20.824  -1.017 -10.782  0.00  0.00    +0.123 A 
BRANCH  17  25
ATOM     24  N   UNL     1      19.273   2.018  -9.748  0.00  0.00    -0.191 NA
ATOM     25  C   UNL     1      19.394   0.930 -10.124  0.00  0.00    +0.101 C 
ENDBRANCH  17  25
ENDBRANCH  14  23
ENDBRANCH  12  14
ENDBRANCH   1  12
BRANCH   3  26
ATOM     26  C   UNL     1      26.795   2.435 -12.043  0.00  0.00    +0.119 C 
BRANCH  26  27
ATOM     27  C   UNL     1      27.129   2.278 -10.582  0.00  0.00    -0.033 A 
ATOM     28  C   UNL     1      26.273   2.810  -9.605  0.00  0.00    +0.005 A 
ATOM     29  C   UNL     1      26.584   2.676  -8.247  0.00  0.00    +0.000 A 
ATOM     30  C   UNL     1      27.750   2.011  -7.859  0.00  0.00    +0.000 A 
ATOM     31  C   UNL     1      28.607   1.479  -8.825  0.00  0.00    +0.000 A 
ATOM     32  C   UNL     1      28.300   1.611 -10.183  0.00  0.00    +0.005 A 
ENDBRANCH  26  27
ENDBRANCH   3  26
TORSDOF 7
