REMARK  Name = 
REMARK  9 active torsions:
REMARK  status: ('A' for Active; 'I' for Inactive)
REMARK    1  A    between atoms: C_1  and  C_2
REMARK    2  A    between atoms: C_7  and  N_8
REMARK    3  A    between atoms: N_8  and  C_9
REMARK    4  A    between atoms: C_9  and  C_10
REMARK    5  A    between atoms: C_10  and  N_11
REMARK    6  A    between atoms: N_11  and  S_12
REMARK    7  A    between atoms: S_12  and  C_15
REMARK    8  A    between atoms: C_15  and  C_16
REMARK    9  A    between atoms: C_22  and  C_23
REMARK                            x       y       z     vdW  Elec       q    Type
REMARK                         _______ _______ _______ _____ _____    ______ ____
ROOT
ATOM      1  C   UNL     1      25.212   1.331 -11.534  0.00  0.00    +0.131 C 
ENDROOT
BRANCH   1   2
ATOM      2  C   UNL     1      26.659   1.033 -12.023  0.00  0.00    +0.046 C 
ATOM      3  C   UNL     1      27.003   1.748 -13.348  0.00  0.00    +0.027 C 
ATOM      4  C   UNL     1      26.715   0.767 -14.480  0.00  0.00    +0.002 C 
ATOM      5  C   UNL     1      26.519  -0.608 -13.850  0.00  0.00    +0.002 C 
ATOM      6  C   UNL     1      26.820  -0.458 -12.367  0.00  0.00    +0.027 C 
BRANCH   2   7
ATOM      7  N   UNL     1      27.602   1.378 -10.940  0.00  0.00    -0.337 N 
ATOM      8  H   UNL     1      28.306   2.126 -11.139  0.00  0.00    +0.147 HD
BRANCH   7  15
ATOM      9  C   UNL     1      26.919   2.956  -8.582  0.00  0.00    +0.045 C 
ATOM     10  C   UNL     1      27.345   1.516  -8.483  0.00  0.00    -0.030 A 
ATOM     11  C   UNL     1      27.445   0.917  -7.215  0.00  0.00    +0.005 A 
ATOM     12  C   UNL     1      27.844  -0.416  -7.089  0.00  0.00    +0.000 A 
ATOM     13  C   UNL     1      28.149  -1.163  -8.226  0.00  0.00    +0.002 A 
ATOM     14  C   UNL     1      28.059  -0.584  -9.492  0.00  0.00    +0.023 A 
ATOM     15  C   UNL     1      27.663   0.761  -9.638  0.00  0.00    +0.031 A 
ENDBRANCH   7  15
ENDBRANCH   2   7
ENDBRANCH   1   2
BRANCH   1  16
ATOM     16  N   UNL     1      24.850   0.542 -10.350  0.00  0.00    -0.192 NA
ATOM     17  H   UNL     1      25.656  -0.088 -10.124  0.00  0.00    +0.148 HD
BRANCH  16  18
ATOM     18  S   UNL     1      23.513  -0.508 -10.717  0.00  0.00    +0.034 S 
ATOM     19  O   UNL     1      23.528  -0.872 -12.176  0.00  0.00    -0.158 OA
ATOM     20  O   UNL     1      23.642  -1.761  -9.901  0.00  0.00    -0.158 OA
BRANCH  18  21
ATOM     21  C   UNL     1      21.972   0.302 -10.308  0.00  0.00    +0.221 C 
BRANCH  21  22
ATOM     22  C   UNL     1      20.802  -0.602 -10.620  0.00  0.00    -0.007 A 
ATOM     23  C   UNL     1      21.054  -1.895 -11.112  0.00  0.00    +0.009 A 
ATOM     24  C   UNL     1      19.997  -2.746 -11.447  0.00  0.00    +0.039 A 
ATOM     25  C   UNL     1      18.679  -2.313 -11.309  0.00  0.00    +0.125 A 
ATOM     26  F   UNL     1      17.656  -3.140 -11.640  0.00  0.00    -0.205 F 
ATOM     27  C   UNL     1      18.411  -1.028 -10.834  0.00  0.00    +0.057 A 
ATOM     28  C   UNL     1      19.461  -0.166 -10.489  0.00  0.00    +0.059 A 
BRANCH  28  29
ATOM     29  C   UNL     1      19.141   1.156 -10.006  0.00  0.00    +0.100 C 
ATOM     30  N   UNL     1      18.883   2.215  -9.619  0.00  0.00    -0.191 NA
ENDBRANCH  28  29
ENDBRANCH  21  22
ENDBRANCH  18  21
ENDBRANCH  16  18
ENDBRANCH   1  16
TORSDOF 8
