REMARK  Name = 
REMARK  9 active torsions:
REMARK  status: ('A' for Active; 'I' for Inactive)
REMARK    1  A    between atoms: C_1  and  C_2
REMARK    2  A    between atoms: N_5  and  C_6
REMARK    3  A    between atoms: C_6  and  C_7
REMARK    4  A    between atoms: C_6  and  C_22
REMARK    5  A    between atoms: C_7  and  N_8
REMARK    6  A    between atoms: N_8  and  S_9
REMARK    7  A    between atoms: S_9  and  C_12
REMARK    8  A    between atoms: C_17  and  S_18
REMARK    9  A    between atoms: S_18  and  C_19
REMARK                            x       y       z     vdW  Elec       q    Type
REMARK                         _______ _______ _______ _____ _____    ______ ____
ROOT
ATOM      1  C   UNL     1      24.579  -0.650 -10.411  0.00  0.00    +0.129 C 
ENDROOT
BRANCH   1   2
ATOM      2  N   UNL     1      23.583  -0.681 -11.487  0.00  0.00    -0.188 NA
ATOM      3  H   UNL     1      23.266   0.297 -11.675  0.00  0.00    +0.148 HD
BRANCH   2   4
ATOM      4  S   UNL     1      22.197  -1.608 -10.994  0.00  0.00    +0.060 S 
ATOM      5  O   UNL     1      22.462  -2.326  -9.701  0.00  0.00    -0.153 OA
ATOM      6  O   UNL     1      21.913  -2.645 -12.045  0.00  0.00    -0.153 OA
BRANCH   4   7
ATOM      7  C   UNL     1      20.798  -0.526 -10.849  0.00  0.00    +0.130 A 
ATOM      8  C   UNL     1      21.066   0.832 -10.601  0.00  0.00    +0.030 A 
ATOM      9  C   UNL     1      20.030   1.756 -10.469  0.00  0.00    +0.002 A 
ATOM     10  C   UNL     1      18.707   1.339 -10.578  0.00  0.00    +0.002 A 
ATOM     11  C   UNL     1      18.416  -0.004 -10.811  0.00  0.00    +0.029 A 
ATOM     12  C   UNL     1      19.442  -0.957 -10.935  0.00  0.00    +0.114 A 
BRANCH  12  13
ATOM     13  S   UNL     1      18.952  -2.639 -11.228  0.00  0.00    -0.004 S 
ATOM     14  C   UNL     1      17.177  -2.739 -11.326  0.00  0.00    +0.200 C 
ATOM     15  O   UNL     1      19.572  -3.179 -12.485  0.00  0.00    -0.170 OA
ATOM     16  O   UNL     1      19.413  -3.501 -10.084  0.00  0.00    -0.170 OA
ENDBRANCH  12  13
ENDBRANCH   4   7
ENDBRANCH   2   4
ENDBRANCH   1   2
BRANCH   1  17
ATOM     17  C   UNL     1      25.527   0.566 -10.584  0.00  0.00    +0.102 C 
BRANCH  17  22
ATOM     18  C   UNL     1      27.735  -2.740  -7.079  0.00  0.00    +0.007 C 
ATOM     19  C   UNL     1      28.125  -1.460  -7.830  0.00  0.00    -0.012 C 
ATOM     20  C   UNL     1      27.927  -1.647  -9.348  0.00  0.00    +0.018 C 
ATOM     21  C   UNL     1      27.797  -0.292 -10.058  0.00  0.00    +0.085 C 
ATOM     22  N   UNL     1      26.635   0.522  -9.581  0.00  0.00    -0.294 NA
ATOM     23  C   UNL     1      26.176   0.130  -8.219  0.00  0.00    +0.085 C 
ATOM     24  C   UNL     1      27.349  -0.233  -7.300  0.00  0.00    +0.018 C 
ENDBRANCH  17  22
BRANCH  17  25
ATOM     25  C   UNL     1      26.036   0.582 -12.024  0.00  0.00    -0.029 A 
ATOM     26  C   UNL     1      26.082  -0.611 -12.768  0.00  0.00    +0.005 A 
ATOM     27  C   UNL     1      26.573  -0.611 -14.077  0.00  0.00    +0.000 A 
ATOM     28  C   UNL     1      27.025   0.579 -14.657  0.00  0.00    +0.000 A 
ATOM     29  C   UNL     1      26.982   1.770 -13.928  0.00  0.00    +0.000 A 
ATOM     30  C   UNL     1      26.492   1.774 -12.619  0.00  0.00    +0.005 A 
ENDBRANCH  17  25
ENDBRANCH   1  17
TORSDOF 7
