REMARK  Name = 
REMARK  9 active torsions:
REMARK  status: ('A' for Active; 'I' for Inactive)
REMARK    1  A    between atoms: C_1  and  C_2
REMARK    2  A    between atoms: C_2  and  C_3
REMARK    3  A    between atoms: C_6  and  C_7
REMARK    4  A    between atoms: C_7  and  N_8
REMARK    5  A    between atoms: N_8  and  S_9
REMARK    6  A    between atoms: S_9  and  C_12
REMARK    7  A    between atoms: C_14  and  S_15
REMARK    8  A    between atoms: S_15  and  C_16
REMARK    9  A    between atoms: C_21  and  C_22
REMARK                            x       y       z     vdW  Elec       q    Type
REMARK                         _______ _______ _______ _____ _____    ______ ____
ROOT
ATOM      1  S   UNL     1      25.085   1.400 -11.973  0.00  0.00    +0.059 S 
ATOM      2  O   UNL     1      24.627   2.832 -11.973  0.00  0.00    -0.153 OA
ATOM      3  O   UNL     1      25.819   1.149 -13.260  0.00  0.00    -0.153 OA
ENDROOT
BRANCH   1   4
ATOM      4  C   UNL     1      26.179   1.116 -10.600  0.00  0.00    +0.110 A 
ATOM      5  C   UNL     1      26.563  -0.206 -10.314  0.00  0.00    +0.055 A 
ATOM      6  C   UNL     1      27.439  -0.487  -9.261  0.00  0.00    +0.090 A 
ATOM      7  C   UNL     1      27.935   0.555  -8.476  0.00  0.00    +0.027 A 
ATOM      8  C   UNL     1      27.567   1.873  -8.746  0.00  0.00    +0.007 A 
ATOM      9  C   UNL     1      26.681   2.172  -9.796  0.00  0.00    -0.024 A 
ATOM     10  C   UNL     1      26.365   3.619 -10.069  0.00  0.00    +0.046 C 
BRANCH   6  11
ATOM     11  S   UNL     1      27.894  -2.153  -8.916  0.00  0.00    -0.006 S 
ATOM     12  C   UNL     1      27.703  -2.468  -7.176  0.00  0.00    +0.200 C 
ATOM     13  O   UNL     1      27.017  -3.091  -9.698  0.00  0.00    -0.170 OA
ATOM     14  O   UNL     1      29.325  -2.387  -9.314  0.00  0.00    -0.170 OA
ENDBRANCH   6  11
ENDBRANCH   1   4
BRANCH   1  15
ATOM     15  N   UNL     1      23.679   0.381 -11.898  0.00  0.00    -0.190 NA
ATOM     16  H   UNL     1      23.831  -0.406 -12.566  0.00  0.00    +0.148 HD
BRANCH  15  17
ATOM     17  C   UNL     1      23.520  -0.157 -10.541  0.00  0.00    +0.109 C 
BRANCH  17  21
ATOM     18  C   UNL     1      19.522  -1.874 -10.279  0.00  0.00    -0.011 C 
ATOM     19  C   UNL     1      19.614  -0.327 -10.207  0.00  0.00    +0.004 C 
ATOM     20  C   UNL     1      20.995   0.237 -10.601  0.00  0.00    +0.005 C 
ATOM     21  C   UNL     1      22.122  -0.775 -10.329  0.00  0.00    +0.005 C 
ATOM     22  C   UNL     1      21.919  -2.075 -11.149  0.00  0.00    +0.005 C 
ATOM     23  C   UNL     1      20.435  -2.418 -11.398  0.00  0.00    +0.004 C 
BRANCH  18  25
ATOM     24  C   UNL     1      17.715  -2.677 -11.913  0.00  0.00    +0.004 C 
ATOM     25  C   UNL     1      18.050  -2.310 -10.467  0.00  0.00    -0.000 C 
ENDBRANCH  18  25
ENDBRANCH  17  21
ENDBRANCH  15  17
ENDBRANCH   1  15
TORSDOF 6
