REMARK  Name = 
REMARK  8 active torsions:
REMARK  status: ('A' for Active; 'I' for Inactive)
REMARK    1  A    between atoms: C_1  and  C_2
REMARK    2  A    between atoms: C_2  and  N_3
REMARK    3  A    between atoms: C_2  and  C_17
REMARK    4  A    between atoms: N_3  and  S_4
REMARK    5  A    between atoms: S_4  and  C_7
REMARK    6  A    between atoms: C_7  and  C_8
REMARK    7  A    between atoms: C_14  and  C_15
REMARK    8  A    between atoms: C_17  and  C_18
REMARK                            x       y       z     vdW  Elec       q    Type
REMARK                         _______ _______ _______ _____ _____    ______ ____
ROOT
ATOM      1  N   UNL     1      24.620  -1.147  -9.909  0.00  0.00    -0.191 NA
ATOM      2  H   UNL     1      25.254  -1.571 -10.623  0.00  0.00    +0.148 HD
ENDROOT
BRANCH   1   3
ATOM      3  S   UNL     1      23.353  -0.331 -10.781  0.00  0.00    +0.034 S 
ATOM      4  O   UNL     1      23.876   0.991 -11.266  0.00  0.00    -0.158 OA
ATOM      5  O   UNL     1      22.924  -1.151 -11.967  0.00  0.00    -0.158 OA
BRANCH   3   6
ATOM      6  C   UNL     1      21.950  -0.056  -9.707  0.00  0.00    +0.221 C 
BRANCH   6   7
ATOM      7  C   UNL     1      20.735  -0.788 -10.223  0.00  0.00    -0.007 A 
ATOM      8  C   UNL     1      20.843  -2.159 -10.517  0.00  0.00    +0.009 A 
ATOM      9  C   UNL     1      19.750  -2.865 -11.023  0.00  0.00    +0.039 A 
ATOM     10  C   UNL     1      18.538  -2.211 -11.252  0.00  0.00    +0.125 A 
ATOM     11  F   UNL     1      17.479  -2.899 -11.745  0.00  0.00    -0.205 F 
ATOM     12  C   UNL     1      18.418  -0.847 -10.978  0.00  0.00    +0.057 A 
ATOM     13  C   UNL     1      19.507  -0.126 -10.469  0.00  0.00    +0.059 A 
BRANCH  13  14
ATOM     14  C   UNL     1      19.343   1.284 -10.211  0.00  0.00    +0.100 C 
ATOM     15  N   UNL     1      19.211   2.415 -10.004  0.00  0.00    -0.191 NA
ENDBRANCH  13  14
ENDBRANCH   6   7
ENDBRANCH   3   6
ENDBRANCH   1   3
BRANCH   1  17
ATOM     16  C   UNL     1      25.627  -0.937  -7.659  0.00  0.00    +0.026 C 
ATOM     17  C   UNL     1      25.348  -0.227  -9.006  0.00  0.00    +0.084 C 
BRANCH  17  18
ATOM     18  C   UNL     1      26.653   0.376  -9.676  0.00  0.00    +0.012 C 
ATOM     19  C   UNL     1      27.899  -0.438  -9.212  0.00  0.00    +0.013 C 
ATOM     20  C   UNL     1      28.907   0.544  -8.640  0.00  0.00    +0.001 C 
ATOM     21  C   UNL     1      28.094   1.725  -8.165  0.00  0.00    +0.001 C 
ATOM     22  C   UNL     1      26.894   1.806  -9.096  0.00  0.00    +0.013 C 
BRANCH  18  23
ATOM     23  C   UNL     1      26.625   0.433 -11.232  0.00  0.00    -0.040 A 
ATOM     24  C   UNL     1      26.681  -0.715 -12.062  0.00  0.00    +0.004 A 
ATOM     25  C   UNL     1      26.665  -0.599 -13.456  0.00  0.00    +0.000 A 
ATOM     26  C   UNL     1      26.599   0.654 -14.058  0.00  0.00    +0.000 A 
ATOM     27  C   UNL     1      26.550   1.800 -13.268  0.00  0.00    +0.000 A 
ATOM     28  C   UNL     1      26.566   1.693 -11.875  0.00  0.00    +0.004 A 
ENDBRANCH  18  23
ENDBRANCH  17  18
ENDBRANCH   1  17
TORSDOF 7
