REMARK  Name = 
REMARK  7 active torsions:
REMARK  status: ('A' for Active; 'I' for Inactive)
REMARK    1  A    between atoms: C_2  and  C_3
REMARK    2  A    between atoms: C_9  and  S_10
REMARK    3  A    between atoms: S_10  and  N_13
REMARK    4  A    between atoms: N_13  and  C_14
REMARK    5  A    between atoms: C_14  and  C_15
REMARK    6  A    between atoms: N_20  and  C_21
REMARK    7  A    between atoms: C_21  and  C_22
REMARK                            x       y       z     vdW  Elec       q    Type
REMARK                         _______ _______ _______ _____ _____    ______ ____
ROOT
ATOM      1  C   UNL     1      24.472  -0.185  -9.033  0.00  0.00    +0.110 C 
ENDROOT
BRANCH   1   2
ATOM      2  C   UNL     1      25.810  -0.918  -9.272  0.00  0.00    +0.019 C 
ATOM      3  C   UNL     1      26.450  -1.430  -7.958  0.00  0.00    +0.006 C 
ATOM      4  C   UNL     1      27.116  -0.348  -7.087  0.00  0.00    +0.002 C 
ATOM      5  C   UNL     1      28.449   0.136  -7.681  0.00  0.00    +0.015 C 
ATOM      6  C   UNL     1      28.304   1.269  -8.716  0.00  0.00    +0.085 C 
ATOM      7  N   UNL     1      27.021   1.245  -9.451  0.00  0.00    -0.298 NA
ATOM      8  C   UNL     1      26.779  -0.062 -10.111  0.00  0.00    +0.089 C 
BRANCH   7   9
ATOM      9  C   UNL     1      26.974   2.364 -10.417  0.00  0.00    +0.119 C 
BRANCH   9  10
ATOM     10  C   UNL     1      26.499   1.884 -11.765  0.00  0.00    -0.033 A 
ATOM     11  C   UNL     1      27.418   1.356 -12.688  0.00  0.00    +0.005 A 
ATOM     12  C   UNL     1      26.981   0.908 -13.938  0.00  0.00    +0.000 A 
ATOM     13  C   UNL     1      25.627   0.979 -14.273  0.00  0.00    +0.000 A 
ATOM     14  C   UNL     1      24.708   1.513 -13.365  0.00  0.00    +0.000 A 
ATOM     15  C   UNL     1      25.141   1.964 -12.115  0.00  0.00    +0.005 A 
ENDBRANCH   9  10
ENDBRANCH   7   9
ENDBRANCH   1   2
BRANCH   1  16
ATOM     16  N   UNL     1      23.338  -1.053  -9.366  0.00  0.00    -0.190 NA
ATOM     17  H   UNL     1      23.679  -2.033  -9.499  0.00  0.00    +0.148 HD
BRANCH  16  18
ATOM     18  S   UNL     1      22.589  -0.527 -10.848  0.00  0.00    +0.060 S 
ATOM     19  O   UNL     1      23.487  -0.922 -11.990  0.00  0.00    -0.153 OA
ATOM     20  O   UNL     1      22.470   0.971 -10.819  0.00  0.00    -0.153 OA
BRANCH  18  27
ATOM     21  C   UNL     1      19.795  -0.448 -10.858  0.00  0.00    +0.081 A 
ATOM     22  C   UNL     1      18.532  -1.037 -11.008  0.00  0.00    +0.059 A 
ATOM     23  C   UNL     1      18.419  -2.382 -11.367  0.00  0.00    +0.125 A 
ATOM     24  F   UNL     1      17.192  -2.944 -11.516  0.00  0.00    -0.205 F 
ATOM     25  C   UNL     1      19.566  -3.148 -11.571  0.00  0.00    +0.040 A 
ATOM     26  C   UNL     1      20.830  -2.574 -11.416  0.00  0.00    +0.032 A 
ATOM     27  C   UNL     1      20.965  -1.215 -11.076  0.00  0.00    +0.123 A 
BRANCH  21  29
ATOM     28  N   UNL     1      19.908   2.051 -10.146  0.00  0.00    -0.191 NA
ATOM     29  C   UNL     1      19.858   0.939 -10.463  0.00  0.00    +0.101 C 
ENDBRANCH  21  29
ENDBRANCH  18  27
ENDBRANCH  16  18
ENDBRANCH   1  16
TORSDOF 7
