REMARK  Name = 
REMARK  6 active torsions:
REMARK  status: ('A' for Active; 'I' for Inactive)
REMARK    1  A    between atoms: C_1  and  S_2
REMARK    2  A    between atoms: S_2  and  C_5
REMARK    3  A    between atoms: C_7  and  C_8
REMARK    4  A    between atoms: N_10  and  C_11
REMARK    5  A    between atoms: C_17  and  O_18
REMARK    6  A    between atoms: O_18  and  C_19
REMARK                            x       y       z     vdW  Elec       q    Type
REMARK                         _______ _______ _______ _____ _____    ______ ____
ROOT
ATOM      1  C   UNL     1      24.349  -0.567 -10.387  0.00  0.00    +0.248 C 
ATOM      2  O   UNL     1      25.183  -0.913 -11.268  0.00  0.00    -0.270 OA
ATOM      3  N   UNL     1      24.794   0.179  -9.241  0.00  0.00    -0.278 N 
ATOM      4  H   UNL     1      24.109   0.814  -8.774  0.00  0.00    +0.155 HD
ENDROOT
BRANCH   1   7
ATOM      5  C   UNL     1      20.575  -0.176 -10.632  0.00  0.00    +0.102 A 
ATOM      6  C   UNL     1      21.939   0.114 -10.459  0.00  0.00    +0.041 A 
ATOM      7  C   UNL     1      22.914  -0.894 -10.571  0.00  0.00    +0.039 A 
ATOM      8  C   UNL     1      22.506  -2.202 -10.881  0.00  0.00    +0.014 A 
ATOM      9  C   UNL     1      21.154  -2.495 -11.064  0.00  0.00    +0.018 A 
ATOM     10  C   UNL     1      20.185  -1.495 -10.943  0.00  0.00    +0.043 A 
ATOM     11 BR   UNL     1      18.355  -1.998 -11.230  0.00  0.00    -0.048 Br
BRANCH   5  13
ATOM     12  C   UNL     1      18.455   0.927  -8.982  0.00  0.00    +0.200 C 
ATOM     13  S   UNL     1      19.394   1.134 -10.479  0.00  0.00    -0.005 S 
ATOM     14  O   UNL     1      18.447   1.112 -11.646  0.00  0.00    -0.170 OA
ATOM     15  O   UNL     1      20.097   2.463 -10.467  0.00  0.00    -0.170 OA
ENDBRANCH   5  13
ENDBRANCH   1   7
BRANCH   3  16
ATOM     16  C   UNL     1      26.163   0.209  -8.796  0.00  0.00    +0.079 A 
ATOM     17  C   UNL     1      26.607  -0.657  -7.779  0.00  0.00    +0.065 A 
ATOM     18  C   UNL     1      27.929  -0.605  -7.332  0.00  0.00    +0.125 A 
ATOM     19  F   UNL     1      28.347  -1.444  -6.351  0.00  0.00    -0.205 F 
ATOM     20  C   UNL     1      28.817   0.321  -7.881  0.00  0.00    +0.042 A 
ATOM     21  C   UNL     1      28.385   1.197  -8.879  0.00  0.00    +0.051 A 
ATOM     22  C   UNL     1      27.061   1.141  -9.351  0.00  0.00    +0.150 A 
BRANCH  22  23
ATOM     23  O   UNL     1      26.605   2.024 -10.344  0.00  0.00    -0.454 OA
BRANCH  23  24
ATOM     24  C   UNL     1      26.356   1.686 -11.682  0.00  0.00    +0.129 A 
ATOM     25  C   UNL     1      25.097   1.971 -12.225  0.00  0.00    +0.046 A 
ATOM     26  C   UNL     1      24.805   1.635 -13.550  0.00  0.00    +0.004 A 
ATOM     27  C   UNL     1      25.768   0.999 -14.340  0.00  0.00    +0.000 A 
ATOM     28  C   UNL     1      27.021   0.692 -13.800  0.00  0.00    +0.004 A 
ATOM     29  C   UNL     1      27.315   1.028 -12.476  0.00  0.00    +0.046 A 
ENDBRANCH  23  24
ENDBRANCH  22  23
ENDBRANCH   3  16
TORSDOF 5
