REMARK  Name = 
REMARK  9 active torsions:
REMARK  status: ('A' for Active; 'I' for Inactive)
REMARK    1  A    between atoms: C_1  and  C_2
REMARK    2  A    between atoms: C_2  and  C_3
REMARK    3  A    between atoms: C_2  and  N_11
REMARK    4  A    between atoms: C_7  and  C_8
REMARK    5  A    between atoms: N_11  and  C_12
REMARK    6  A    between atoms: C_13  and  C_15
REMARK    7  A    between atoms: C_15  and  N_16
REMARK    8  A    between atoms: N_16  and  S_17
REMARK    9  A    between atoms: S_17  and  C_20
REMARK                            x       y       z     vdW  Elec       q    Type
REMARK                         _______ _______ _______ _____ _____    ______ ____
ROOT
ATOM      1  C   UNL     1      26.420  -0.116  -8.676  0.00  0.00    +0.116 C 
ATOM      2  C   UNL     1      26.619  -0.593  -7.190  0.00  0.00    +0.033 C 
ATOM      3  C   UNL     1      27.726  -1.649  -6.971  0.00  0.00    +0.002 C 
ATOM      4  C   UNL     1      28.009  -2.480  -8.219  0.00  0.00    +0.000 C 
ATOM      5  C   UNL     1      28.429  -1.597  -9.404  0.00  0.00    +0.002 C 
ATOM      6  C   UNL     1      27.801  -0.187  -9.387  0.00  0.00    +0.033 C 
ENDROOT
BRANCH   1   9
ATOM      7  N   UNL     1      24.003  -0.681  -9.530  0.00  0.00    -0.296 N 
ATOM      8  C   UNL     1      23.297  -0.174  -8.343  0.00  0.00    +0.132 C 
ATOM      9  C   UNL     1      25.421  -0.993  -9.453  0.00  0.00    +0.238 C 
ATOM     10  O   UNL     1      25.849  -2.020 -10.046  0.00  0.00    -0.274 OA
BRANCH   7  12
ATOM     11  C   UNL     1      23.644  -0.282 -11.966  0.00  0.00    +0.033 C 
ATOM     12  C   UNL     1      23.195  -1.056 -10.715  0.00  0.00    +0.103 C 
BRANCH  12  13
ATOM     13  C   UNL     1      21.704  -0.973 -10.429  0.00  0.00    -0.026 A 
ATOM     14  C   UNL     1      20.956  -2.163 -10.378  0.00  0.00    +0.005 A 
ATOM     15  C   UNL     1      19.590  -2.135 -10.088  0.00  0.00    +0.002 A 
ATOM     16  C   UNL     1      18.953  -0.920  -9.829  0.00  0.00    +0.019 A 
ATOM     17  C   UNL     1      19.682   0.274  -9.870  0.00  0.00    +0.052 A 
ATOM     18  C   UNL     1      21.050   0.250 -10.172  0.00  0.00    +0.024 A 
BRANCH  17  19
ATOM     19  C   UNL     1      19.027   1.525  -9.591  0.00  0.00    +0.099 C 
ATOM     20  N   UNL     1      18.502   2.532  -9.366  0.00  0.00    -0.191 NA
ENDBRANCH  17  19
ENDBRANCH  12  13
ENDBRANCH   7  12
ENDBRANCH   1   9
BRANCH   1  21
ATOM     21  N   UNL     1      25.967   1.296  -8.696  0.00  0.00    -0.175 NA
ATOM     22  H   UNL     1      24.947   1.342  -8.927  0.00  0.00    +0.149 HD
BRANCH  21  23
ATOM     23  S   UNL     1      26.798   2.338  -9.834  0.00  0.00    +0.059 S 
ATOM     24  O   UNL     1      28.266   2.424  -9.518  0.00  0.00    -0.153 OA
ATOM     25  O   UNL     1      26.216   3.720  -9.733  0.00  0.00    -0.153 OA
BRANCH  23  26
ATOM     26  C   UNL     1      26.570   1.767 -11.486  0.00  0.00    +0.108 A 
ATOM     27  C   UNL     1      27.565   0.992 -12.097  0.00  0.00    +0.029 A 
ATOM     28  C   UNL     1      27.402   0.548 -13.413  0.00  0.00    +0.005 A 
ATOM     29  C   UNL     1      26.245   0.875 -14.124  0.00  0.00    +0.038 A 
ATOM     30  C   UNL     1      25.248   1.647 -13.519  0.00  0.00    +0.125 A 
ATOM     31  F   UNL     1      24.126   1.965 -14.212  0.00  0.00    -0.205 F 
ATOM     32  C   UNL     1      25.407   2.091 -12.203  0.00  0.00    +0.066 A 
ENDBRANCH  23  26
ENDBRANCH  21  23
ENDBRANCH   1  21
TORSDOF 7
