REMARK  Name = 
REMARK  7 active torsions:
REMARK  status: ('A' for Active; 'I' for Inactive)
REMARK    1  A    between atoms: C_2  and  C_3
REMARK    2  A    between atoms: C_9  and  S_10
REMARK    3  A    between atoms: S_10  and  N_13
REMARK    4  A    between atoms: N_13  and  C_14
REMARK    5  A    between atoms: C_14  and  C_15
REMARK    6  A    between atoms: N_20  and  C_21
REMARK    7  A    between atoms: C_21  and  C_22
REMARK                            x       y       z     vdW  Elec       q    Type
REMARK                         _______ _______ _______ _____ _____    ______ ____
ROOT
ATOM      1  C   UNL     1      23.933  -0.507  -9.186  0.00  0.00    +0.110 C 
ENDROOT
BRANCH   1   2
ATOM      2  C   UNL     1      25.437  -0.552  -8.838  0.00  0.00    +0.019 C 
ATOM      3  C   UNL     1      25.648  -1.241  -7.467  0.00  0.00    +0.006 C 
ATOM      4  C   UNL     1      27.088  -1.674  -7.146  0.00  0.00    +0.002 C 
ATOM      5  C   UNL     1      28.170  -0.730  -7.690  0.00  0.00    +0.015 C 
ATOM      6  C   UNL     1      28.580  -1.082  -9.134  0.00  0.00    +0.085 C 
ATOM      7  N   UNL     1      27.593  -0.693 -10.164  0.00  0.00    -0.298 NA
ATOM      8  C   UNL     1      26.233  -1.243  -9.979  0.00  0.00    +0.089 C 
BRANCH   7   9
ATOM      9  C   UNL     1      27.638   0.735 -10.544  0.00  0.00    +0.119 C 
BRANCH   9  10
ATOM     10  C   UNL     1      26.843   0.954 -11.802  0.00  0.00    -0.033 A 
ATOM     11  C   UNL     1      27.366   0.584 -13.054  0.00  0.00    +0.005 A 
ATOM     12  C   UNL     1      26.610   0.775 -14.215  0.00  0.00    +0.000 A 
ATOM     13  C   UNL     1      25.330   1.330 -14.135  0.00  0.00    +0.000 A 
ATOM     14  C   UNL     1      24.802   1.693 -12.893  0.00  0.00    +0.000 A 
ATOM     15  C   UNL     1      25.554   1.506 -11.729  0.00  0.00    +0.005 A 
ENDBRANCH   9  10
ENDBRANCH   7   9
ENDBRANCH   1   2
BRANCH   1  16
ATOM     16  N   UNL     1      23.470  -1.821  -9.646  0.00  0.00    -0.190 NA
ATOM     17  H   UNL     1      22.815  -2.205  -8.927  0.00  0.00    +0.148 HD
BRANCH  16  18
ATOM     18  S   UNL     1      22.560  -1.645 -11.119  0.00  0.00    +0.060 S 
ATOM     19  O   UNL     1      22.186  -3.007 -11.636  0.00  0.00    -0.153 OA
ATOM     20  O   UNL     1      23.413  -0.946 -12.140  0.00  0.00    -0.153 OA
BRANCH  18  27
ATOM     21  C   UNL     1      19.810  -1.183 -11.084  0.00  0.00    +0.081 A 
ATOM     22  C   UNL     1      18.688  -0.378 -10.841  0.00  0.00    +0.059 A 
ATOM     23  C   UNL     1      18.844   0.926 -10.365  0.00  0.00    +0.125 A 
ATOM     24  F   UNL     1      17.753   1.699 -10.134  0.00  0.00    -0.205 F 
ATOM     25  C   UNL     1      20.122   1.437 -10.137  0.00  0.00    +0.040 A 
ATOM     26  C   UNL     1      21.246   0.644 -10.375  0.00  0.00    +0.032 A 
ATOM     27  C   UNL     1      21.105  -0.676 -10.832  0.00  0.00    +0.123 A 
BRANCH  21  29
ATOM     28  N   UNL     1      19.436  -3.577 -12.027  0.00  0.00    -0.191 NA
ATOM     29  C   UNL     1      19.603  -2.511 -11.606  0.00  0.00    +0.101 C 
ENDBRANCH  21  29
ENDBRANCH  18  27
ENDBRANCH  16  18
ENDBRANCH   1  16
TORSDOF 7
