REMARK  Name = 
REMARK  7 active torsions:
REMARK  status: ('A' for Active; 'I' for Inactive)
REMARK    1  A    between atoms: C_1  and  S_2
REMARK    2  A    between atoms: S_2  and  C_5
REMARK    3  A    between atoms: C_5  and  C_6
REMARK    4  A    between atoms: C_6  and  N_7
REMARK    5  A    between atoms: N_10  and  C_11
REMARK    6  A    between atoms: C_17  and  O_18
REMARK    7  A    between atoms: O_18  and  C_19
REMARK                            x       y       z     vdW  Elec       q    Type
REMARK                         _______ _______ _______ _____ _____    ______ ____
ROOT
ATOM      1  N   UNL     1      22.475   0.293 -10.193  0.00  0.00    -0.297 N 
ATOM      2  C   UNL     1      23.827  -0.169 -10.102  0.00  0.00    +0.304 C 
ATOM      3  O   UNL     1      24.264  -1.016 -10.929  0.00  0.00    -0.253 OA
ATOM      4  N   UNL     1      24.687   0.347  -9.075  0.00  0.00    -0.266 N 
ATOM      5  H   UNL     1      22.140   0.966  -9.469  0.00  0.00    +0.150 HD
ATOM      6  H   UNL     1      24.410   1.236  -8.602  0.00  0.00    +0.156 HD
ENDROOT
BRANCH   4   7
ATOM      7  C   UNL     1      25.991  -0.188  -8.810  0.00  0.00    +0.080 A 
ATOM      8  C   UNL     1      26.110  -1.290  -7.950  0.00  0.00    +0.065 A 
ATOM      9  C   UNL     1      27.370  -1.798  -7.619  0.00  0.00    +0.125 A 
ATOM     10  F   UNL     1      27.475  -2.851  -6.774  0.00  0.00    -0.205 F 
ATOM     11  C   UNL     1      28.520  -1.210  -8.149  0.00  0.00    +0.042 A 
ATOM     12  C   UNL     1      28.413  -0.131  -9.030  0.00  0.00    +0.051 A 
ATOM     13  C   UNL     1      27.156   0.366  -9.394  0.00  0.00    +0.150 A 
BRANCH  13  14
ATOM     14  O   UNL     1      27.099   1.409 -10.329  0.00  0.00    -0.454 OA
BRANCH  14  15
ATOM     15  C   UNL     1      26.604   1.293 -11.637  0.00  0.00    +0.129 A 
ATOM     16  C   UNL     1      27.357   0.578 -12.578  0.00  0.00    +0.046 A 
ATOM     17  C   UNL     1      26.894   0.428 -13.889  0.00  0.00    +0.004 A 
ATOM     18  C   UNL     1      25.675   0.994 -14.270  0.00  0.00    +0.000 A 
ATOM     19  C   UNL     1      24.911   1.701 -13.338  0.00  0.00    +0.004 A 
ATOM     20  C   UNL     1      25.366   1.844 -12.023  0.00  0.00    +0.046 A 
ENDBRANCH  14  15
ENDBRANCH  13  14
ENDBRANCH   4   7
BRANCH   1  21
ATOM     21  C   UNL     1      21.598  -0.118 -11.293  0.00  0.00    +0.135 C 
BRANCH  21  22
ATOM     22  C   UNL     1      20.119  -0.295 -10.852  0.00  0.00    +0.103 C 
ATOM     23  C   UNL     1      19.222   0.710 -11.616  0.00  0.00    +0.031 C 
ATOM     24  C   UNL     1      18.766   1.746 -10.603  0.00  0.00    +0.002 C 
ATOM     25  C   UNL     1      18.765   1.021  -9.275  0.00  0.00    +0.002 C 
ATOM     26  C   UNL     1      19.934   0.055  -9.355  0.00  0.00    +0.031 C 
BRANCH  22  28
ATOM     27  C   UNL     1      17.809  -2.026 -11.536  0.00  0.00    +0.194 C 
ATOM     28  S   UNL     1      19.556  -1.987 -11.184  0.00  0.00    -0.027 S 
ATOM     29  O   UNL     1      19.816  -2.842  -9.975  0.00  0.00    -0.174 OA
ATOM     30  O   UNL     1      20.296  -2.571 -12.353  0.00  0.00    -0.174 OA
ENDBRANCH  22  28
ENDBRANCH  21  22
ENDBRANCH   1  21
TORSDOF 6
