REMARK  Name = 
REMARK  11 active torsions:
REMARK  status: ('A' for Active; 'I' for Inactive)
REMARK    1  A    between atoms: C_1  and  C_2
REMARK    2  A    between atoms: C_2  and  C_3
REMARK    3  A    between atoms: C_2  and  C_4
REMARK    4  A    between atoms: C_4  and  N_5
REMARK    5  A    between atoms: C_4  and  C_19
REMARK    6  A    between atoms: N_5  and  S_6
REMARK    7  A    between atoms: S_6  and  C_9
REMARK    8  A    between atoms: C_9  and  C_10
REMARK    9  A    between atoms: C_16  and  C_17
REMARK   10  A    between atoms: C_19  and  O_20
REMARK   11  A    between atoms: C_19  and  C_21
REMARK                            x       y       z     vdW  Elec       q    Type
REMARK                         _______ _______ _______ _____ _____    ______ ____
ROOT
ATOM      1  N   UNL     1      24.627   0.193  -8.860  0.00  0.00    -0.188 NA
ATOM      2  H   UNL     1      24.404   1.213  -8.907  0.00  0.00    +0.148 HD
ENDROOT
BRANCH   1   3
ATOM      3  S   UNL     1      23.466  -0.647  -9.854  0.00  0.00    +0.034 S 
ATOM      4  O   UNL     1      24.022  -0.768 -11.246  0.00  0.00    -0.158 OA
ATOM      5  O   UNL     1      23.203  -2.026  -9.317  0.00  0.00    -0.158 OA
BRANCH   3   6
ATOM      6  C   UNL     1      21.929   0.258  -9.915  0.00  0.00    +0.221 C 
BRANCH   6   7
ATOM      7  C   UNL     1      20.816  -0.625 -10.426  0.00  0.00    -0.007 A 
ATOM      8  C   UNL     1      21.147  -1.826 -11.078  0.00  0.00    +0.009 A 
ATOM      9  C   UNL     1      20.148  -2.656 -11.591  0.00  0.00    +0.039 A 
ATOM     10  C   UNL     1      18.806  -2.293 -11.468  0.00  0.00    +0.125 A 
ATOM     11  F   UNL     1      17.838  -3.101 -11.969  0.00  0.00    -0.205 F 
ATOM     12  C   UNL     1      18.459  -1.098 -10.833  0.00  0.00    +0.057 A 
ATOM     13  C   UNL     1      19.454  -0.257 -10.315  0.00  0.00    +0.059 A 
BRANCH  13  14
ATOM     14  C   UNL     1      19.052   0.975  -9.677  0.00  0.00    +0.100 C 
ATOM     15  N   UNL     1      18.731   1.963  -9.168  0.00  0.00    -0.191 NA
ENDBRANCH  13  14
ENDBRANCH   6   7
ENDBRANCH   3   6
ENDBRANCH   1   3
BRANCH   1  16
ATOM     16  C   UNL     1      26.030  -0.084  -9.247  0.00  0.00    +0.112 C 
BRANCH  16  18
ATOM     17  C   UNL     1      27.392  -1.988  -8.132  0.00  0.00    +0.009 C 
ATOM     18  C   UNL     1      26.843  -0.556  -8.002  0.00  0.00    +0.004 C 
ATOM     19  C   UNL     1      27.995   0.411  -7.695  0.00  0.00    +0.009 C 
ENDBRANCH  16  18
BRANCH  16  20
ATOM     20  C   UNL     1      26.714   1.127  -9.958  0.00  0.00    +0.163 C 
BRANCH  20  21
ATOM     21  C   UNL     1      26.455   1.113 -11.453  0.00  0.00    -0.018 A 
ATOM     22  C   UNL     1      25.347   1.779 -12.013  0.00  0.00    +0.006 A 
ATOM     23  C   UNL     1      25.113   1.725 -13.391  0.00  0.00    +0.000 A 
ATOM     24  C   UNL     1      25.974   1.003 -14.220  0.00  0.00    +0.000 A 
ATOM     25  C   UNL     1      27.070   0.332 -13.675  0.00  0.00    +0.000 A 
ATOM     26  C   UNL     1      27.310   0.383 -12.298  0.00  0.00    +0.006 A 
ENDBRANCH  20  21
BRANCH  20  27
ATOM     27  O   UNL     1      26.296   2.346  -9.397  0.00  0.00    -0.386 OA
ATOM     28  H   UNL     1      25.403   2.187  -8.991  0.00  0.00    +0.210 HD
ENDBRANCH  20  27
ENDBRANCH  16  20
ENDBRANCH   1  16
TORSDOF 9
