REMARK  Name = 
REMARK  9 active torsions:
REMARK  status: ('A' for Active; 'I' for Inactive)
REMARK    1  A    between atoms: C_1  and  N_2
REMARK    2  A    between atoms: N_2  and  C_3
REMARK    3  A    between atoms: N_2  and  C_10
REMARK    4  A    between atoms: C_3  and  C_4
REMARK    5  A    between atoms: C_10  and  C_11
REMARK    6  A    between atoms: C_11  and  N_12
REMARK    7  A    between atoms: N_12  and  S_13
REMARK    8  A    between atoms: S_13  and  C_16
REMARK    9  A    between atoms: C_22  and  C_23
REMARK                            x       y       z     vdW  Elec       q    Type
REMARK                         _______ _______ _______ _____ _____    ______ ____
ROOT
ATOM      1  C   UNL     1      26.011   0.985 -11.284  0.00  0.00    +0.036 C 
ATOM      2  C   UNL     1      27.227   0.486 -12.147  0.00  0.00    +0.023 C 
ATOM      3  C   UNL     1      26.838  -0.092 -13.519  0.00  0.00    +0.002 C 
ATOM      4  C   UNL     1      26.022   0.922 -14.322  0.00  0.00    +0.000 C 
ATOM      5  C   UNL     1      24.789   1.383 -13.544  0.00  0.00    +0.002 C 
ATOM      6  C   UNL     1      25.168   1.963 -12.171  0.00  0.00    +0.023 C 
ENDROOT
BRANCH   1   8
ATOM      7  C   UNL     1      26.307   3.133 -10.015  0.00  0.00    +0.105 C 
ATOM      8  N   UNL     1      26.466   1.656 -10.004  0.00  0.00    -0.294 NA
BRANCH   8   9
ATOM      9  C   UNL     1      27.819   1.280  -9.513  0.00  0.00    +0.119 C 
BRANCH   9  10
ATOM     10  C   UNL     1      27.824  -0.049  -8.794  0.00  0.00    -0.033 A 
ATOM     11  C   UNL     1      27.812  -1.246  -9.531  0.00  0.00    +0.005 A 
ATOM     12  C   UNL     1      27.796  -2.479  -8.871  0.00  0.00    +0.000 A 
ATOM     13  C   UNL     1      27.788  -2.525  -7.474  0.00  0.00    +0.000 A 
ATOM     14  C   UNL     1      27.795  -1.339  -6.735  0.00  0.00    +0.000 A 
ATOM     15  C   UNL     1      27.812  -0.104  -7.390  0.00  0.00    +0.005 A 
ENDBRANCH   9  10
ENDBRANCH   8   9
ENDBRANCH   1   8
BRANCH   1  16
ATOM     16  C   UNL     1      25.144  -0.258 -10.888  0.00  0.00    +0.128 C 
BRANCH  16  17
ATOM     17  N   UNL     1      23.947  -0.355 -11.734  0.00  0.00    -0.188 NA
ATOM     18  H   UNL     1      24.209  -0.843 -12.621  0.00  0.00    +0.148 HD
BRANCH  17  19
ATOM     19  S   UNL     1      22.750  -1.356 -10.962  0.00  0.00    +0.060 S 
ATOM     20  O   UNL     1      22.524  -2.585 -11.795  0.00  0.00    -0.153 OA
ATOM     21  O   UNL     1      23.253  -1.764  -9.605  0.00  0.00    -0.153 OA
BRANCH  19  22
ATOM     22  C   UNL     1      21.221  -0.472 -10.821  0.00  0.00    +0.123 A 
ATOM     23  C   UNL     1      21.257   0.877 -10.432  0.00  0.00    +0.032 A 
ATOM     24  C   UNL     1      20.076   1.609 -10.297  0.00  0.00    +0.040 A 
ATOM     25  C   UNL     1      18.845   1.008 -10.565  0.00  0.00    +0.125 A 
ATOM     26  F   UNL     1      17.700   1.722 -10.434  0.00  0.00    -0.205 F 
ATOM     27  C   UNL     1      18.794  -0.325 -10.978  0.00  0.00    +0.059 A 
ATOM     28  C   UNL     1      19.973  -1.070 -11.116  0.00  0.00    +0.081 A 
BRANCH  28  29
ATOM     29  C   UNL     1      19.874  -2.432 -11.580  0.00  0.00    +0.101 C 
ATOM     30  N   UNL     1      19.792  -3.525 -11.954  0.00  0.00    -0.191 NA
ENDBRANCH  28  29
ENDBRANCH  19  22
ENDBRANCH  17  19
ENDBRANCH  16  17
ENDBRANCH   1  16
TORSDOF 8
