REMARK  Name = 
REMARK  7 active torsions:
REMARK  status: ('A' for Active; 'I' for Inactive)
REMARK    1  A    between atoms: C_1  and  S_2
REMARK    2  A    between atoms: S_2  and  C_5
REMARK    3  A    between atoms: C_7  and  N_8
REMARK    4  A    between atoms: N_8  and  C_9
REMARK    5  A    between atoms: C_9  and  C_10
REMARK    6  A    between atoms: C_9  and  C_16
REMARK    7  A    between atoms: C_25  and  N_26
REMARK                            x       y       z     vdW  Elec       q    Type
REMARK                         _______ _______ _______ _____ _____    ______ ____
ROOT
ATOM      1  N   UNL     1      24.027  -0.148  -9.604  0.00  0.00    -0.333 N 
ATOM      2  H   UNL     1      24.020   0.675  -8.958  0.00  0.00    +0.147 HD
ENDROOT
BRANCH   1   5
ATOM      3  C   UNL     1      20.336  -0.376 -10.393  0.00  0.00    +0.120 A 
ATOM      4  C   UNL     1      21.572   0.121  -9.943  0.00  0.00    +0.052 A 
ATOM      5  C   UNL     1      22.751  -0.635 -10.071  0.00  0.00    +0.030 A 
ATOM      6  C   UNL     1      22.684  -1.896 -10.674  0.00  0.00    +0.025 A 
ATOM      7  C   UNL     1      21.466  -2.404 -11.122  0.00  0.00    +0.036 A 
ATOM      8  C   UNL     1      20.280  -1.668 -10.974  0.00  0.00    +0.151 A 
BRANCH   3  10
ATOM      9  C   UNL     1      19.395   2.374 -10.075  0.00  0.00    +0.200 C 
ATOM     10  S   UNL     1      18.909   0.672 -10.281  0.00  0.00    -0.004 S 
ATOM     11  O   UNL     1      18.059   0.521 -11.511  0.00  0.00    -0.170 OA
ATOM     12  O   UNL     1      18.085   0.290  -9.083  0.00  0.00    -0.170 OA
ENDBRANCH   3  10
BRANCH   8  13
ATOM     13  N   UNL     1      19.048  -2.252 -11.419  0.00  0.00    +0.058 N 
ATOM     14  O   UNL     1      18.019  -2.160 -10.718  0.00  0.00    -0.126 OA
ATOM     15  O   UNL     1      19.053  -3.132 -12.476  0.00  0.00    -0.126 OA
ENDBRANCH   8  13
ENDBRANCH   1   5
BRANCH   1  16
ATOM     16  C   UNL     1      25.325  -0.732  -9.984  0.00  0.00    +0.131 C 
BRANCH  16  17
ATOM     17  C   UNL     1      25.848  -0.142 -11.280  0.00  0.00    -0.020 A 
ATOM     18  C   UNL     1      27.220  -0.219 -11.570  0.00  0.00    +0.006 A 
ATOM     19  C   UNL     1      27.728   0.334 -12.751  0.00  0.00    +0.003 A 
ATOM     20  C   UNL     1      26.872   0.978 -13.646  0.00  0.00    +0.038 A 
ATOM     21  C   UNL     1      25.508   1.076 -13.362  0.00  0.00    +0.124 A 
ATOM     22  F   UNL     1      24.678   1.707 -14.229  0.00  0.00    -0.205 F 
ATOM     23  C   UNL     1      24.995   0.525 -12.183  0.00  0.00    +0.044 A 
ENDBRANCH  16  17
BRANCH  16  24
ATOM     24  C   UNL     1      26.352  -0.544  -8.882  0.00  0.00    -0.023 A 
ATOM     25  C   UNL     1      26.860  -1.647  -8.169  0.00  0.00    +0.006 A 
ATOM     26  C   UNL     1      27.789  -1.459  -7.142  0.00  0.00    +0.000 A 
ATOM     27  C   UNL     1      28.217  -0.172  -6.811  0.00  0.00    +0.000 A 
ATOM     28  C   UNL     1      27.716   0.931  -7.507  0.00  0.00    +0.000 A 
ATOM     29  C   UNL     1      26.786   0.749  -8.535  0.00  0.00    +0.006 A 
ENDBRANCH  16  24
ENDBRANCH   1  16
TORSDOF 6
