REMARK  Name = 
REMARK  6 active torsions:
REMARK  status: ('A' for Active; 'I' for Inactive)
REMARK    1  A    between atoms: C_1  and  C_2
REMARK    2  A    between atoms: C_4  and  C_5
REMARK    3  A    between atoms: N_12  and  S_13
REMARK    4  A    between atoms: S_13  and  C_16
REMARK    5  A    between atoms: C_21  and  S_22
REMARK    6  A    between atoms: S_22  and  C_23
REMARK                            x       y       z     vdW  Elec       q    Type
REMARK                         _______ _______ _______ _____ _____    ______ ____
ROOT
ATOM      1  S   UNL     1      24.270  -0.336 -10.062  0.00  0.00    +0.061 S 
ATOM      2  O   UNL     1      25.062  -1.610 -10.157  0.00  0.00    -0.153 OA
ATOM      3  O   UNL     1      24.488   0.259  -8.697  0.00  0.00    -0.153 OA
ENDROOT
BRANCH   1   4
ATOM      4  C   UNL     1      22.567  -0.727 -10.288  0.00  0.00    +0.107 A 
ATOM      5  C   UNL     1      22.196  -2.036 -10.606  0.00  0.00    +0.030 A 
ATOM      6  C   UNL     1      20.855  -2.347 -10.840  0.00  0.00    +0.024 A 
ATOM      7  C   UNL     1      19.873  -1.352 -10.767  0.00  0.00    +0.066 A 
ATOM      8 CL   UNL     1      18.204  -1.814 -11.078  0.00  0.00    -0.082 Cl
ATOM      9  C   UNL     1      20.239  -0.026 -10.450  0.00  0.00    +0.108 A 
ATOM     10  C   UNL     1      21.587   0.270 -10.193  0.00  0.00    +0.057 A 
BRANCH   9  11
ATOM     11  S   UNL     1      19.043   1.274 -10.377  0.00  0.00    -0.004 S 
ATOM     12  C   UNL     1      18.159   1.366 -11.918  0.00  0.00    +0.200 C 
ATOM     13  O   UNL     1      19.726   2.584 -10.099  0.00  0.00    -0.170 OA
ATOM     14  O   UNL     1      18.060   1.008  -9.271  0.00  0.00    -0.170 OA
ENDBRANCH   9  11
ENDBRANCH   1   4
BRANCH   1  19
ATOM     15  C   UNL     1      26.987   0.391 -14.277  0.00  0.00    +0.009 C 
ATOM     16  C   UNL     1      25.974   1.086 -13.361  0.00  0.00    +0.004 C 
ATOM     17  C   UNL     1      26.636   1.992 -12.319  0.00  0.00    +0.030 C 
ATOM     18  C   UNL     1      25.941   1.672 -10.985  0.00  0.00    +0.110 C 
ATOM     19  N   UNL     1      24.816   0.769 -11.305  0.00  0.00    -0.169 NA
ATOM     20  C   UNL     1      25.140   0.095 -12.557  0.00  0.00    +0.113 C 
BRANCH  18  21
ATOM     21  C   UNL     1      26.933   1.141  -9.953  0.00  0.00    -0.026 A 
ATOM     22  C   UNL     1      27.266   1.932  -8.836  0.00  0.00    +0.005 A 
ATOM     23  C   UNL     1      28.160   1.460  -7.872  0.00  0.00    +0.003 A 
ATOM     24  C   UNL     1      28.748   0.202  -8.018  0.00  0.00    +0.038 A 
ATOM     25  C   UNL     1      28.453  -0.581  -9.136  0.00  0.00    +0.124 A 
ATOM     26  F   UNL     1      29.034  -1.797  -9.284  0.00  0.00    -0.205 F 
ATOM     27  C   UNL     1      27.557  -0.114 -10.103  0.00  0.00    +0.043 A 
ENDBRANCH  18  21
ENDBRANCH   1  19
TORSDOF 4
