REMARK  Name = 
REMARK  8 active torsions:
REMARK  status: ('A' for Active; 'I' for Inactive)
REMARK    1  A    between atoms: C_1  and  O_2
REMARK    2  A    between atoms: O_2  and  C_3
REMARK    3  A    between atoms: C_5  and  C_6
REMARK    4  A    between atoms: C_6  and  C_7
REMARK    5  A    between atoms: C_6  and  N_8
REMARK    6  A    between atoms: N_8  and  C_9
REMARK    7  A    between atoms: C_24  and  S_25
REMARK    8  A    between atoms: S_25  and  C_26
REMARK                            x       y       z     vdW  Elec       q    Type
REMARK                         _______ _______ _______ _____ _____    ______ ____
ROOT
ATOM      1  N   UNL     1      24.668   0.788 -10.828  0.00  0.00    -0.306 NA
ATOM      2  H   UNL     1      25.318   1.314 -10.196  0.00  0.00    +0.123 HD
ENDROOT
BRANCH   1   3
ATOM      3  C   UNL     1      25.243   0.679 -12.192  0.00  0.00    +0.061 C 
ATOM      4  C   UNL     1      26.235   1.788 -12.613  0.00  0.00    +0.011 C 
ATOM      5  C   UNL     1      26.597   1.338 -14.036  0.00  0.00    +0.006 C 
ATOM      6  C   UNL     1      26.649  -0.226 -13.870  0.00  0.00    +0.006 C 
ATOM      7  C   UNL     1      26.144  -0.518 -12.408  0.00  0.00    +0.011 C 
ATOM      8  C   UNL     1      27.329  -0.567 -11.349  0.00  0.00    +0.040 C 
ATOM      9  C   UNL     1      27.385   0.454 -10.163  0.00  0.00    -0.044 A 
ATOM     10  C   UNL     1      27.794  -0.096  -8.928  0.00  0.00    +0.004 A 
ATOM     11  C   UNL     1      27.972   0.697  -7.797  0.00  0.00    +0.000 A 
ATOM     12  C   UNL     1      27.763   2.069  -7.860  0.00  0.00    +0.000 A 
ATOM     13  C   UNL     1      27.370   2.662  -9.055  0.00  0.00    +0.004 A 
ATOM     14  C   UNL     1      27.169   1.899 -10.218  0.00  0.00    -0.044 A 
ATOM     15  C   UNL     1      26.667   2.701 -11.454  0.00  0.00    +0.040 C 
ENDBRANCH   1   3
BRANCH   1  16
ATOM     16  C   UNL     1      24.261  -0.472 -10.153  0.00  0.00    +0.081 C 
ATOM     17  C   UNL     1      24.563  -0.543  -8.643  0.00  0.00    +0.029 C 
BRANCH  16  20
ATOM     18  C   UNL     1      20.407  -0.406 -10.220  0.00  0.00    +0.145 A 
ATOM     19  C   UNL     1      21.745  -0.039  -9.975  0.00  0.00    +0.052 A 
ATOM     20  C   UNL     1      22.809  -0.843 -10.426  0.00  0.00    -0.027 A 
ATOM     21  C   UNL     1      22.515  -2.038 -11.101  0.00  0.00    +0.007 A 
ATOM     22  C   UNL     1      21.192  -2.412 -11.342  0.00  0.00    +0.031 A 
ATOM     23  C   UNL     1      20.134  -1.605 -10.904  0.00  0.00    +0.129 A 
BRANCH  23  24
ATOM     24  S   UNL     1      18.468  -2.088 -11.234  0.00  0.00    -0.002 S 
ATOM     25  C   UNL     1      17.720  -2.697  -9.739  0.00  0.00    +0.200 C 
ATOM     26  O   UNL     1      18.452  -3.161 -12.285  0.00  0.00    -0.170 OA
ATOM     27  O   UNL     1      17.675  -0.913 -11.734  0.00  0.00    -0.170 OA
ENDBRANCH  23  24
BRANCH  18  29
ATOM     28  C   UNL     1      19.120   1.743 -10.207  0.00  0.00    +0.277 C 
ATOM     29  O   UNL     1      19.333   0.396  -9.798  0.00  0.00    -0.493 OA
ENDBRANCH  18  29
ENDBRANCH  16  20
ENDBRANCH   1  16
TORSDOF 5
