REMARK  Name = 
REMARK  7 active torsions:
REMARK  status: ('A' for Active; 'I' for Inactive)
REMARK    1  A    between atoms: S_2  and  N_4
REMARK    2  A    between atoms: S_2  and  C_19
REMARK    3  A    between atoms: N_4  and  C_5
REMARK    4  A    between atoms: C_5  and  C_6
REMARK    5  A    between atoms: C_11  and  O_12
REMARK    6  A    between atoms: O_12  and  C_13
REMARK    7  A    between atoms: C_21  and  C_22
REMARK                            x       y       z     vdW  Elec       q    Type
REMARK                         _______ _______ _______ _____ _____    ______ ____
ROOT
ATOM      1  N   UNL     1      23.287  -1.601  -9.395  0.00  0.00    -0.190 NA
ATOM      2  H   UNL     1      22.653  -2.176  -8.793  0.00  0.00    +0.148 HD
ENDROOT
BRANCH   1   4
ATOM      3  O   UNL     1      21.797   0.312 -10.418  0.00  0.00    -0.158 OA
ATOM      4  S   UNL     1      22.338  -1.053 -10.744  0.00  0.00    +0.033 S 
ATOM      5  O   UNL     1      23.203  -0.950 -11.970  0.00  0.00    -0.158 OA
BRANCH   4   6
ATOM      6  C   UNL     1      21.011  -2.234 -11.053  0.00  0.00    +0.156 C 
ATOM      7  C   UNL     1      20.233  -2.609  -9.800  0.00  0.00    +0.038 C 
ATOM      8  C   UNL     1      19.546  -1.804 -10.902  0.00  0.00    +0.047 C 
BRANCH   8   9
ATOM      9  C   UNL     1      19.256  -0.358 -10.598  0.00  0.00    -0.040 A 
ATOM     10  C   UNL     1      19.383   0.629 -11.591  0.00  0.00    +0.004 A 
ATOM     11  C   UNL     1      19.158   1.974 -11.280  0.00  0.00    +0.003 A 
ATOM     12  C   UNL     1      18.831   2.346  -9.974  0.00  0.00    +0.038 A 
ATOM     13  C   UNL     1      18.741   1.375  -8.972  0.00  0.00    +0.124 A 
ATOM     14  F   UNL     1      18.443   1.739  -7.700  0.00  0.00    -0.205 F 
ATOM     15  C   UNL     1      18.966   0.030  -9.279  0.00  0.00    +0.042 A 
ENDBRANCH   8   9
ENDBRANCH   4   6
ENDBRANCH   1   4
BRANCH   1  16
ATOM     16  C   UNL     1      23.749  -0.456  -8.606  0.00  0.00    +0.144 C 
BRANCH  16  17
ATOM     17  C   UNL     1      25.250  -0.505  -8.475  0.00  0.00    +0.010 A 
ATOM     18  C   UNL     1      25.832  -1.266  -7.448  0.00  0.00    +0.008 A 
ATOM     19  C   UNL     1      27.219  -1.294  -7.288  0.00  0.00    +0.001 A 
ATOM     20  C   UNL     1      28.037  -0.558  -8.147  0.00  0.00    +0.004 A 
ATOM     21  C   UNL     1      27.470   0.217  -9.160  0.00  0.00    +0.046 A 
ATOM     22  C   UNL     1      26.073   0.268  -9.320  0.00  0.00    +0.133 A 
BRANCH  22  23
ATOM     23  O   UNL     1      25.487   1.042 -10.334  0.00  0.00    -0.456 OA
BRANCH  23  24
ATOM     24  C   UNL     1      25.830   0.994 -11.693  0.00  0.00    +0.128 A 
ATOM     25  C   UNL     1      27.115   0.618 -12.125  0.00  0.00    +0.046 A 
ATOM     26  C   UNL     1      27.423   0.602 -13.490  0.00  0.00    +0.004 A 
ATOM     27  C   UNL     1      26.456   0.970 -14.429  0.00  0.00    +0.000 A 
ATOM     28  C   UNL     1      25.184   1.363 -14.005  0.00  0.00    +0.004 A 
ATOM     29  C   UNL     1      24.874   1.380 -12.641  0.00  0.00    +0.046 A 
ENDBRANCH  23  24
ENDBRANCH  22  23
ENDBRANCH  16  17
ENDBRANCH   1  16
TORSDOF 7
