REMARK  Name = 
REMARK  9 active torsions:
REMARK  status: ('A' for Active; 'I' for Inactive)
REMARK    1  A    between atoms: C_1  and  C_2
REMARK    2  A    between atoms: C_6  and  O_7
REMARK    3  A    between atoms: O_7  and  C_8
REMARK    4  A    between atoms: C_8  and  C_9
REMARK    5  A    between atoms: C_13  and  N_14
REMARK    6  A    between atoms: C_15  and  C_17
REMARK    7  A    between atoms: C_20  and  S_21
REMARK    8  A    between atoms: S_21  and  C_22
REMARK    9  A    between atoms: C_25  and  N_26
REMARK                            x       y       z     vdW  Elec       q    Type
REMARK                         _______ _______ _______ _____ _____    ______ ____
ROOT
ATOM      1  N   UNL     1      24.285  -1.163  -8.695  0.00  0.00    -0.281 N 
ATOM      2  C   UNL     1      23.742  -0.972 -10.016  0.00  0.00    +0.248 C 
ATOM      3  O   UNL     1      24.474  -0.524 -10.940  0.00  0.00    -0.270 OA
ATOM      4  H   UNL     1      23.646  -1.421  -7.912  0.00  0.00    +0.155 HD
ENDROOT
BRANCH   1   9
ATOM      5  C   UNL     1      27.686   0.401  -8.577  0.00  0.00    -0.020 A 
ATOM      6  C   UNL     1      28.346  -0.451  -7.678  0.00  0.00    +0.006 A 
ATOM      7  C   UNL     1      27.674  -1.542  -7.123  0.00  0.00    +0.002 A 
ATOM      8  C   UNL     1      26.341  -1.792  -7.458  0.00  0.00    +0.023 A 
ATOM      9  C   UNL     1      25.668  -0.951  -8.361  0.00  0.00    +0.034 A 
ATOM     10  C   UNL     1      26.341   0.159  -8.895  0.00  0.00    +0.029 A 
BRANCH   5  11
ATOM     11  C   UNL     1      28.388   1.606  -9.132  0.00  0.00    +0.195 C 
BRANCH  11  12
ATOM     12  O   UNL     1      28.704   1.365 -10.487  0.00  0.00    -0.372 OA
BRANCH  12  18
ATOM     13  C   UNL     1      27.263   1.337 -14.823  0.00  0.00    +0.007 C 
ATOM     14  C   UNL     1      26.869   0.410 -13.663  0.00  0.00    -0.012 C 
ATOM     15  C   UNL     1      25.477   0.778 -13.107  0.00  0.00    +0.003 C 
ATOM     16  C   UNL     1      25.477   2.113 -12.336  0.00  0.00    +0.003 C 
ATOM     17  C   UNL     1      26.771   2.365 -11.534  0.00  0.00    +0.031 C 
ATOM     18  C   UNL     1      27.536   1.067 -11.235  0.00  0.00    +0.119 C 
ATOM     19  C   UNL     1      27.958   0.383 -12.553  0.00  0.00    +0.035 C 
ENDBRANCH  12  18
ENDBRANCH  11  12
ENDBRANCH   5  11
ENDBRANCH   1   9
BRANCH   2  20
ATOM     20  C   UNL     1      22.325  -1.288 -10.316  0.00  0.00    +0.039 A 
ATOM     21  C   UNL     1      22.019  -2.354 -11.173  0.00  0.00    +0.015 A 
ATOM     22  C   UNL     1      20.694  -2.662 -11.480  0.00  0.00    +0.030 A 
ATOM     23  C   UNL     1      19.638  -1.908 -10.945  0.00  0.00    +0.118 A 
ATOM     24  C   UNL     1      19.932  -0.839 -10.062  0.00  0.00    +0.152 A 
ATOM     25  C   UNL     1      21.273  -0.529  -9.776  0.00  0.00    +0.047 A 
BRANCH  23  26
ATOM     26  S   UNL     1      17.976  -2.280 -11.442  0.00  0.00    -0.004 S 
ATOM     27  C   UNL     1      17.920  -3.511 -12.730  0.00  0.00    +0.200 C 
ATOM     28  O   UNL     1      17.201  -2.787 -10.258  0.00  0.00    -0.170 OA
ATOM     29  O   UNL     1      17.321  -1.038 -11.977  0.00  0.00    -0.170 OA
ENDBRANCH  23  26
BRANCH  24  30
ATOM     30  N   UNL     1      18.896  -0.056  -9.447  0.00  0.00    +0.058 N 
ATOM     31  O   UNL     1      18.350  -0.448  -8.395  0.00  0.00    -0.126 OA
ATOM     32  O   UNL     1      18.668   1.233  -9.871  0.00  0.00    -0.126 OA
ENDBRANCH  24  30
ENDBRANCH   2  20
TORSDOF 7
