REMARK  Name = 
REMARK  8 active torsions:
REMARK  status: ('A' for Active; 'I' for Inactive)
REMARK    1  A    between atoms: C_1  and  S_2
REMARK    2  A    between atoms: S_2  and  C_5
REMARK    3  A    between atoms: C_10  and  C_11
REMARK    4  A    between atoms: C_11  and  C_12
REMARK    5  A    between atoms: C_12  and  N_13
REMARK    6  A    between atoms: N_13  and  S_14
REMARK    7  A    between atoms: S_14  and  C_17
REMARK    8  A    between atoms: C_19  and  C_20
REMARK                            x       y       z     vdW  Elec       q    Type
REMARK                         _______ _______ _______ _____ _____    ______ ____
ROOT
ATOM      1  N   UNL     1      23.588  -1.934  -9.431  0.00  0.00    -0.194 NA
ATOM      2  H   UNL     1      23.120  -2.368  -8.601  0.00  0.00    +0.148 HD
ENDROOT
BRANCH   1   3
ATOM      3  S   UNL     1      22.326  -1.250 -10.410  0.00  0.00    +0.033 S 
ATOM      4  O   UNL     1      21.890   0.060  -9.813  0.00  0.00    -0.158 OA
ATOM      5  O   UNL     1      22.884  -0.993 -11.783  0.00  0.00    -0.158 OA
BRANCH   3   6
ATOM      6  C   UNL     1      20.915  -2.371 -10.466  0.00  0.00    +0.156 C 
ATOM      7  C   UNL     1      20.127  -2.283 -11.764  0.00  0.00    +0.038 C 
ATOM      8  C   UNL     1      19.485  -1.817 -10.457  0.00  0.00    +0.047 C 
BRANCH   8   9
ATOM      9  C   UNL     1      19.299  -0.331 -10.292  0.00  0.00    -0.040 A 
ATOM     10  C   UNL     1      19.345   0.530 -11.401  0.00  0.00    +0.004 A 
ATOM     11  C   UNL     1      19.122   1.901 -11.239  0.00  0.00    +0.003 A 
ATOM     12  C   UNL     1      18.825   2.417  -9.974  0.00  0.00    +0.038 A 
ATOM     13  C   UNL     1      18.740   1.562  -8.872  0.00  0.00    +0.124 A 
ATOM     14  F   UNL     1      18.433   2.060  -7.649  0.00  0.00    -0.205 F 
ATOM     15  C   UNL     1      18.962   0.190  -9.032  0.00  0.00    +0.042 A 
ENDBRANCH   8   9
ENDBRANCH   3   6
ENDBRANCH   1   3
BRANCH   1  16
ATOM     16  C   UNL     1      24.485  -0.882  -8.946  0.00  0.00    +0.110 C 
BRANCH  16  17
ATOM     17  C   UNL     1      25.656  -0.688  -9.917  0.00  0.00    +0.054 C 
BRANCH  17  23
ATOM     18  C   UNL     1      26.173   1.561 -11.097  0.00  0.00    +0.091 A 
ATOM     19  C   UNL     1      26.616   2.893 -10.991  0.00  0.00    +0.027 A 
ATOM     20  C   UNL     1      27.034   3.414  -9.767  0.00  0.00    +0.002 A 
ATOM     21  C   UNL     1      27.026   2.614  -8.628  0.00  0.00    +0.000 A 
ATOM     22  C   UNL     1      26.590   1.294  -8.706  0.00  0.00    +0.005 A 
ATOM     23  C   UNL     1      26.148   0.748  -9.927  0.00  0.00    -0.021 A 
BRANCH  18  25
ATOM     24  C   UNL     1      27.007   1.098 -13.904  0.00  0.00    +0.200 C 
ATOM     25  S   UNL     1      25.707   0.939 -12.695  0.00  0.00    -0.006 S 
ATOM     26  O   UNL     1      24.515   1.697 -13.205  0.00  0.00    -0.170 OA
ATOM     27  O   UNL     1      25.364  -0.520 -12.579  0.00  0.00    -0.170 OA
ENDBRANCH  18  25
ENDBRANCH  17  23
ENDBRANCH  16  17
ENDBRANCH   1  16
TORSDOF 7
