REMARK  Name = 
REMARK  8 active torsions:
REMARK  status: ('A' for Active; 'I' for Inactive)
REMARK    1  A    between atoms: C_1  and  S_2
REMARK    2  A    between atoms: S_2  and  C_5
REMARK    3  A    between atoms: C_10  and  S_11
REMARK    4  A    between atoms: S_11  and  N_14
REMARK    5  A    between atoms: N_14  and  C_15
REMARK    6  A    between atoms: C_15  and  C_16
REMARK    7  A    between atoms: C_16  and  C_17
REMARK    8  A    between atoms: C_16  and  N_24
REMARK                            x       y       z     vdW  Elec       q    Type
REMARK                         _______ _______ _______ _____ _____    ______ ____
ROOT
ATOM      1  N   UNL     1      23.142  -1.411  -9.353  0.00  0.00    -0.188 NA
ATOM      2  H   UNL     1      22.961  -2.322  -8.875  0.00  0.00    +0.148 HD
ENDROOT
BRANCH   1   3
ATOM      3  S   UNL     1      22.237  -1.369 -10.840  0.00  0.00    +0.060 S 
ATOM      4  O   UNL     1      21.835  -2.782 -11.153  0.00  0.00    -0.153 OA
ATOM      5  O   UNL     1      23.141  -0.864 -11.929  0.00  0.00    -0.153 OA
BRANCH   3  11
ATOM      6  C   UNL     1      19.476  -0.740 -10.972  0.00  0.00    +0.114 A 
ATOM      7  C   UNL     1      18.422   0.184 -10.840  0.00  0.00    +0.029 A 
ATOM      8  C   UNL     1      18.672   1.519 -10.528  0.00  0.00    +0.002 A 
ATOM      9  C   UNL     1      19.979   1.961 -10.354  0.00  0.00    +0.002 A 
ATOM     10  C   UNL     1      21.038   1.063 -10.470  0.00  0.00    +0.030 A 
ATOM     11  C   UNL     1      20.814  -0.300 -10.742  0.00  0.00    +0.130 A 
BRANCH   6  13
ATOM     12  C   UNL     1      17.305  -2.546 -11.816  0.00  0.00    +0.200 C 
ATOM     13  S   UNL     1      19.046  -2.395 -11.464  0.00  0.00    -0.004 S 
ATOM     14  O   UNL     1      19.865  -2.811 -12.653  0.00  0.00    -0.170 OA
ATOM     15  O   UNL     1      19.347  -3.346 -10.339  0.00  0.00    -0.170 OA
ENDBRANCH   6  13
ENDBRANCH   3  11
ENDBRANCH   1   3
BRANCH   1  16
ATOM     16  C   UNL     1      24.578  -1.271  -9.622  0.00  0.00    +0.129 C 
BRANCH  16  17
ATOM     17  C   UNL     1      24.970   0.224  -9.747  0.00  0.00    +0.102 C 
BRANCH  17  18
ATOM     18  C   UNL     1      25.509   0.462 -11.150  0.00  0.00    -0.029 A 
ATOM     19  C   UNL     1      26.552  -0.334 -11.653  0.00  0.00    +0.008 A 
ATOM     20  C   UNL     1      27.063  -0.104 -12.935  0.00  0.00    +0.038 A 
ATOM     21  C   UNL     1      26.542   0.927 -13.722  0.00  0.00    +0.123 A 
ATOM     22  F   UNL     1      27.039   1.149 -14.963  0.00  0.00    -0.205 F 
ATOM     23  C   UNL     1      25.510   1.730 -13.228  0.00  0.00    +0.038 A 
ATOM     24  C   UNL     1      24.997   1.503 -11.947  0.00  0.00    +0.008 A 
ENDBRANCH  17  18
BRANCH  17  25
ATOM     25  N   UNL     1      25.983   0.636  -8.732  0.00  0.00    -0.290 NA
ATOM     26  C   UNL     1      26.723   1.861  -9.120  0.00  0.00    +0.113 C 
ATOM     27  C   UNL     1      28.030   1.994  -8.320  0.00  0.00    +0.175 C 
ATOM     28  O   UNL     1      28.941   0.921  -8.516  0.00  0.00    -0.377 OA
ATOM     29  C   UNL     1      28.319  -0.279  -8.948  0.00  0.00    +0.175 C 
ATOM     30  C   UNL     1      26.906  -0.475  -8.369  0.00  0.00    +0.113 C 
ENDBRANCH  17  25
ENDBRANCH  16  17
ENDBRANCH   1  16
TORSDOF 7
