REMARK  Name = 
REMARK  9 active torsions:
REMARK  status: ('A' for Active; 'I' for Inactive)
REMARK    1  A    between atoms: C_1  and  C_2
REMARK    2  A    between atoms: C_2  and  N_3
REMARK    3  A    between atoms: C_2  and  C_17
REMARK    4  A    between atoms: N_3  and  S_4
REMARK    5  A    between atoms: S_4  and  C_7
REMARK    6  A    between atoms: C_7  and  C_8
REMARK    7  A    between atoms: C_14  and  C_15
REMARK    8  A    between atoms: C_17  and  O_18
REMARK    9  A    between atoms: C_17  and  C_19
REMARK                            x       y       z     vdW  Elec       q    Type
REMARK                         _______ _______ _______ _____ _____    ______ ____
ROOT
ATOM      1  N   UNL     1      24.565   0.844 -10.926  0.00  0.00    -0.189 NA
ATOM      2  H   UNL     1      24.897   1.172  -9.992  0.00  0.00    +0.148 HD
ENDROOT
BRANCH   1   3
ATOM      3  S   UNL     1      23.474  -0.477 -10.627  0.00  0.00    +0.034 S 
ATOM      4  O   UNL     1      23.136  -1.127 -11.939  0.00  0.00    -0.158 OA
ATOM      5  O   UNL     1      24.129  -1.493  -9.731  0.00  0.00    -0.158 OA
BRANCH   3   6
ATOM      6  C   UNL     1      21.980   0.129  -9.853  0.00  0.00    +0.221 C 
BRANCH   6   7
ATOM      7  C   UNL     1      20.781  -0.660 -10.316  0.00  0.00    -0.007 A 
ATOM      8  C   UNL     1      20.939  -2.026 -10.611  0.00  0.00    +0.009 A 
ATOM      9  C   UNL     1      19.857  -2.783 -11.067  0.00  0.00    +0.039 A 
ATOM     10  C   UNL     1      18.608  -2.185 -11.243  0.00  0.00    +0.125 A 
ATOM     11  F   UNL     1      17.561  -2.923 -11.687  0.00  0.00    -0.205 F 
ATOM     12  C   UNL     1      18.438  -0.827 -10.966  0.00  0.00    +0.057 A 
ATOM     13  C   UNL     1      19.515  -0.056 -10.508  0.00  0.00    +0.059 A 
BRANCH  13  14
ATOM     14  C   UNL     1      19.301   1.348 -10.247  0.00  0.00    +0.100 C 
ATOM     15  N   UNL     1      19.131   2.473 -10.038  0.00  0.00    -0.191 NA
ENDBRANCH  13  14
ENDBRANCH   6   7
ENDBRANCH   3   6
ENDBRANCH   1   3
BRANCH   1  17
ATOM     16  C   UNL     1      25.339   0.924 -13.229  0.00  0.00    +0.028 C 
ATOM     17  C   UNL     1      25.682   0.449 -11.810  0.00  0.00    +0.106 C 
BRANCH  17  18
ATOM     18  C   UNL     1      27.041   1.062 -11.333  0.00  0.00    +0.166 C 
BRANCH  18  19
ATOM     19  C   UNL     1      27.308   0.814  -9.845  0.00  0.00    +0.019 A 
ATOM     20  C   UNL     1      27.625  -0.484  -9.349  0.00  0.00    +0.048 A 
ATOM     21 CL   UNL     1      27.789  -1.907 -10.376  0.00  0.00    -0.083 Cl
ATOM     22  C   UNL     1      27.818  -0.689  -7.978  0.00  0.00    +0.020 A 
ATOM     23  C   UNL     1      27.708   0.367  -7.081  0.00  0.00    +0.003 A 
ATOM     24  C   UNL     1      27.412   1.645  -7.543  0.00  0.00    +0.020 A 
ATOM     25  C   UNL     1      27.216   1.881  -8.908  0.00  0.00    +0.048 A 
ATOM     26 CL   UNL     1      26.848   3.542  -9.373  0.00  0.00    -0.083 Cl
ENDBRANCH  18  19
BRANCH  18  27
ATOM     27  O   UNL     1      28.149   0.643 -12.097  0.00  0.00    -0.385 OA
ATOM     28  H   UNL     1      28.797   1.387 -12.172  0.00  0.00    +0.210 HD
ENDBRANCH  18  27
ENDBRANCH  17  18
ENDBRANCH   1  17
TORSDOF 8
