REMARK  Name = 
REMARK  9 active torsions:
REMARK  status: ('A' for Active; 'I' for Inactive)
REMARK    1  A    between atoms: C_1  and  S_2
REMARK    2  A    between atoms: S_2  and  C_5
REMARK    3  A    between atoms: C_9  and  C_10
REMARK    4  A    between atoms: C_10  and  N_11
REMARK    5  A    between atoms: C_10  and  C_25
REMARK    6  A    between atoms: N_11  and  S_12
REMARK    7  A    between atoms: S_12  and  C_15
REMARK    8  A    between atoms: C_15  and  C_16
REMARK    9  A    between atoms: C_22  and  C_23
REMARK                            x       y       z     vdW  Elec       q    Type
REMARK                         _______ _______ _______ _____ _____    ______ ____
ROOT
ATOM      1  C   UNL     1      24.447  -0.141 -11.024  0.00  0.00    +0.136 C 
ENDROOT
BRANCH   1   6
ATOM      2  C   UNL     1      20.614  -0.100 -10.766  0.00  0.00    +0.088 A 
ATOM      3  C   UNL     1      20.316  -1.453 -10.966  0.00  0.00    +0.027 A 
ATOM      4  C   UNL     1      21.347  -2.371 -11.184  0.00  0.00    +0.002 A 
ATOM      5  C   UNL     1      22.677  -1.943 -11.206  0.00  0.00    +0.005 A 
ATOM      6  C   UNL     1      22.994  -0.590 -10.991  0.00  0.00    -0.023 A 
ATOM      7  C   UNL     1      21.948   0.330 -10.787  0.00  0.00    +0.032 A 
BRANCH   2   9
ATOM      8  C   UNL     1      18.484   0.716  -8.996  0.00  0.00    +0.200 C 
ATOM      9  S   UNL     1      19.326   1.077 -10.522  0.00  0.00    -0.006 S 
ATOM     10  O   UNL     1      19.897   2.468 -10.460  0.00  0.00    -0.170 OA
ATOM     11  O   UNL     1      18.357   1.002 -11.670  0.00  0.00    -0.170 OA
ENDBRANCH   2   9
ENDBRANCH   1   6
BRANCH   1  12
ATOM     12  C   UNL     1      25.195  -0.745  -9.848  0.00  0.00    -0.025 A 
ATOM     13  C   UNL     1      26.270  -1.621 -10.097  0.00  0.00    +0.005 A 
ATOM     14  C   UNL     1      27.010  -2.158  -9.041  0.00  0.00    +0.000 A 
ATOM     15  C   UNL     1      26.687  -1.826  -7.723  0.00  0.00    +0.000 A 
ATOM     16  C   UNL     1      25.635  -0.946  -7.461  0.00  0.00    +0.000 A 
ATOM     17  C   UNL     1      24.893  -0.403  -8.515  0.00  0.00    +0.005 A 
ENDBRANCH   1  12
BRANCH   1  18
ATOM     18  N   UNL     1      25.116  -0.460 -12.302  0.00  0.00    -0.182 NA
ATOM     19  H   UNL     1      24.473  -0.963 -12.955  0.00  0.00    +0.149 HD
BRANCH  18  20
ATOM     20  S   UNL     1      25.675   0.964 -13.134  0.00  0.00    +0.034 S 
ATOM     21  O   UNL     1      24.635   1.362 -14.143  0.00  0.00    -0.158 OA
ATOM     22  O   UNL     1      26.959   0.671 -13.859  0.00  0.00    -0.158 OA
BRANCH  20  23
ATOM     23  C   UNL     1      25.918   2.321 -11.990  0.00  0.00    +0.221 C 
BRANCH  23  24
ATOM     24  C   UNL     1      26.903   1.939 -10.912  0.00  0.00    -0.007 A 
ATOM     25  C   UNL     1      27.659   0.761 -11.063  0.00  0.00    +0.009 A 
ATOM     26  C   UNL     1      28.555   0.362 -10.070  0.00  0.00    +0.039 A 
ATOM     27  C   UNL     1      28.705   1.127  -8.913  0.00  0.00    +0.125 A 
ATOM     28  F   UNL     1      29.573   0.734  -7.948  0.00  0.00    -0.205 F 
ATOM     29  C   UNL     1      27.951   2.290  -8.741  0.00  0.00    +0.057 A 
ATOM     30  C   UNL     1      27.054   2.707  -9.732  0.00  0.00    +0.059 A 
BRANCH  30  31
ATOM     31  C   UNL     1      26.299   3.920  -9.515  0.00  0.00    +0.100 C 
ATOM     32  N   UNL     1      25.692   4.891  -9.340  0.00  0.00    -0.191 NA
ENDBRANCH  30  31
ENDBRANCH  23  24
ENDBRANCH  20  23
ENDBRANCH  18  20
ENDBRANCH   1  18
TORSDOF 8
