REMARK  Name = 
REMARK  10 active torsions:
REMARK  status: ('A' for Active; 'I' for Inactive)
REMARK    1  A    between atoms: C_1  and  C_2
REMARK    2  A    between atoms: C_2  and  C_3
REMARK    3  A    between atoms: C_2  and  C_4
REMARK    4  A    between atoms: C_7  and  C_8
REMARK    5  A    between atoms: C_10  and  C_11
REMARK    6  A    between atoms: C_11  and  N_12
REMARK    7  A    between atoms: N_12  and  S_13
REMARK    8  A    between atoms: S_13  and  C_16
REMARK    9  A    between atoms: C_16  and  C_17
REMARK   10  A    between atoms: C_23  and  C_24
REMARK                            x       y       z     vdW  Elec       q    Type
REMARK                         _______ _______ _______ _____ _____    ______ ____
ROOT
ATOM      1  N   UNL     1      24.772   0.579 -10.358  0.00  0.00    -0.194 NA
ATOM      2  H   UNL     1      24.454   1.248  -9.621  0.00  0.00    +0.148 HD
ENDROOT
BRANCH   1   3
ATOM      3  S   UNL     1      23.482  -0.556 -10.616  0.00  0.00    +0.034 S 
ATOM      4  O   UNL     1      23.744  -1.821  -9.844  0.00  0.00    -0.158 OA
ATOM      5  O   UNL     1      23.402  -0.886 -12.080  0.00  0.00    -0.158 OA
BRANCH   3   6
ATOM      6  C   UNL     1      21.935   0.181 -10.104  0.00  0.00    +0.221 C 
BRANCH   6   7
ATOM      7  C   UNL     1      20.769  -0.669 -10.544  0.00  0.00    -0.007 A 
ATOM      8  C   UNL     1      21.004  -1.996 -10.946  0.00  0.00    +0.009 A 
ATOM      9  C   UNL     1      19.943  -2.820 -11.329  0.00  0.00    +0.039 A 
ATOM     10  C   UNL     1      18.635  -2.333 -11.306  0.00  0.00    +0.125 A 
ATOM     11  F   UNL     1      17.608  -3.138 -11.676  0.00  0.00    -0.205 F 
ATOM     12  C   UNL     1      18.382  -1.023 -10.897  0.00  0.00    +0.057 A 
ATOM     13  C   UNL     1      19.439  -0.185 -10.510  0.00  0.00    +0.059 A 
BRANCH  13  14
ATOM     14  C   UNL     1      19.133   1.158 -10.075  0.00  0.00    +0.100 C 
ATOM     15  N   UNL     1      18.888   2.232  -9.725  0.00  0.00    -0.191 NA
ENDBRANCH  13  14
ENDBRANCH   6   7
ENDBRANCH   3   6
ENDBRANCH   1   3
BRANCH   1  16
ATOM     16  C   UNL     1      25.022   1.340 -11.587  0.00  0.00    +0.109 C 
BRANCH  16  23
ATOM     17  C   UNL     1      27.562   0.925 -11.993  0.00  0.00    -0.004 C 
ATOM     18  C   UNL     1      27.833  -0.112 -10.875  0.00  0.00    +0.004 C 
ATOM     19  C   UNL     1      28.172   0.574  -9.547  0.00  0.00    +0.003 C 
ATOM     20  C   UNL     1      27.059   1.548  -9.122  0.00  0.00    -0.014 C 
ATOM     21  C   UNL     1      27.427   2.239  -7.805  0.00  0.00    +0.007 C 
ATOM     22  C   UNL     1      26.808   2.593 -10.226  0.00  0.00    +0.008 C 
ATOM     23  C   UNL     1      26.447   1.940 -11.586  0.00  0.00    +0.008 C 
BRANCH  17  25
ATOM     24  C   UNL     1      26.294  -0.823 -13.368  0.00  0.00    +0.007 C 
ATOM     25  C   UNL     1      27.354   0.289 -13.413  0.00  0.00    -0.014 C 
ATOM     26  C   UNL     1      26.976   1.298 -14.517  0.00  0.00    +0.007 C 
ENDBRANCH  17  25
ENDBRANCH  16  23
ENDBRANCH   1  16
TORSDOF 7
