REMARK  Name = 
REMARK  13 active torsions:
REMARK  status: ('A' for Active; 'I' for Inactive)
REMARK    1  A    between atoms: C_1  and  O_2
REMARK    2  A    between atoms: O_2  and  C_3
REMARK    3  A    between atoms: C_5  and  C_6
REMARK    4  A    between atoms: C_6  and  C_7
REMARK    5  A    between atoms: C_6  and  N_8
REMARK    6  A    between atoms: N_8  and  C_9
REMARK    7  A    between atoms: C_9  and  C_10
REMARK    8  A    between atoms: C_10  and  N_11
REMARK    9  A    between atoms: N_11  and  C_12
REMARK   10  A    between atoms: C_12  and  C_13
REMARK   11  A    between atoms: C_12  and  C_14
REMARK   12  A    between atoms: C_26  and  S_27
REMARK   13  A    between atoms: S_27  and  C_28
REMARK                            x       y       z     vdW  Elec       q    Type
REMARK                         _______ _______ _______ _____ _____    ______ ____
ROOT
ATOM      1  N   UNL     1      24.071   0.068  -8.732  0.00  0.00    -0.308 NA
ATOM      2  H   UNL     1      24.292   1.058  -8.471  0.00  0.00    +0.123 HD
ENDROOT
BRANCH   1   3
ATOM      3  C   UNL     1      23.809  -0.018 -10.180  0.00  0.00    +0.081 C 
ATOM      4  C   UNL     1      24.900  -0.857 -10.852  0.00  0.00    +0.029 C 
BRANCH   3   7
ATOM      5  C   UNL     1      19.994  -0.315 -10.477  0.00  0.00    +0.145 A 
ATOM      6  C   UNL     1      21.284   0.196 -10.230  0.00  0.00    +0.052 A 
ATOM      7  C   UNL     1      22.427  -0.583 -10.477  0.00  0.00    -0.027 A 
ATOM      8  C   UNL     1      22.267  -1.886 -10.976  0.00  0.00    +0.007 A 
ATOM      9  C   UNL     1      20.995  -2.400 -11.222  0.00  0.00    +0.031 A 
ATOM     10  C   UNL     1      19.853  -1.626 -10.971  0.00  0.00    +0.129 A 
BRANCH  10  11
ATOM     11  S   UNL     1      18.240  -2.283 -11.283  0.00  0.00    -0.002 S 
ATOM     12  C   UNL     1      17.402  -2.770  -9.788  0.00  0.00    +0.200 C 
ATOM     13  O   UNL     1      17.404  -1.236 -11.965  0.00  0.00    -0.170 OA
ATOM     14  O   UNL     1      18.364  -3.484 -12.178  0.00  0.00    -0.170 OA
ENDBRANCH  10  11
BRANCH   5  16
ATOM     15  C   UNL     1      18.838   1.801  -9.793  0.00  0.00    +0.277 C 
ATOM     16  O   UNL     1      18.839   0.450 -10.244  0.00  0.00    -0.493 OA
ENDBRANCH   5  16
ENDBRANCH   3   7
ENDBRANCH   1   3
BRANCH   1  17
ATOM     17  C   UNL     1      25.188  -0.800  -8.324  0.00  0.00    +0.103 C 
BRANCH  17  18
ATOM     18  C   UNL     1      26.539  -0.032  -8.375  0.00  0.00    +0.032 C 
ATOM     19  C   UNL     1      27.256  -0.141  -7.011  0.00  0.00    +0.023 C 
ATOM     20  C   UNL     1      27.935  -1.505  -7.021  0.00  0.00    +0.002 C 
ATOM     21  C   UNL     1      28.196  -1.841  -8.489  0.00  0.00    +0.002 C 
ATOM     22  C   UNL     1      27.499  -0.767  -9.326  0.00  0.00    +0.023 C 
BRANCH  18  23
ATOM     23  N   UNL     1      26.239   1.347  -8.850  0.00  0.00    -0.303 NA
ATOM     24  H   UNL     1      25.229   1.434  -9.115  0.00  0.00    +0.123 HD
BRANCH  23  25
ATOM     25  C   UNL     1      27.114   2.007  -9.842  0.00  0.00    +0.081 C 
ATOM     26  C   UNL     1      27.033   3.525  -9.652  0.00  0.00    +0.029 C 
BRANCH  25  27
ATOM     27  C   UNL     1      26.753   1.642 -11.272  0.00  0.00    -0.031 A 
ATOM     28  C   UNL     1      25.539   2.090 -11.827  0.00  0.00    +0.005 A 
ATOM     29  C   UNL     1      25.192   1.751 -13.139  0.00  0.00    +0.000 A 
ATOM     30  C   UNL     1      26.041   0.950 -13.904  0.00  0.00    +0.000 A 
ATOM     31  C   UNL     1      27.237   0.479 -13.357  0.00  0.00    +0.000 A 
ATOM     32  C   UNL     1      27.590   0.815 -12.048  0.00  0.00    +0.005 A 
ENDBRANCH  25  27
ENDBRANCH  23  25
ENDBRANCH  18  23
ENDBRANCH  17  18
ENDBRANCH   1  17
TORSDOF 9
