REMARK  Name = 
REMARK  10 active torsions:
REMARK  status: ('A' for Active; 'I' for Inactive)
REMARK    1  A    between atoms: C_1  and  C_2
REMARK    2  A    between atoms: C_5  and  C_6
REMARK    3  A    between atoms: C_6  and  N_7
REMARK    4  A    between atoms: C_8  and  C_10
REMARK    5  A    between atoms: C_12  and  C_13
REMARK    6  A    between atoms: C_16  and  N_17
REMARK    7  A    between atoms: N_17  and  C_18
REMARK    8  A    between atoms: N_17  and  C_19
REMARK    9  A    between atoms: C_21  and  O_22
REMARK   10  A    between atoms: O_22  and  C_23
REMARK                            x       y       z     vdW  Elec       q    Type
REMARK                         _______ _______ _______ _____ _____    ______ ____
ROOT
ATOM      1  C   UNL     1      25.203   0.027  -9.771  0.00  0.00    +0.143 C 
ENDROOT
BRANCH   1   6
ATOM      2  C   UNL     1      27.054   0.982 -15.217  0.00  0.00    +0.044 C 
ATOM      3  C   UNL     1      26.607   0.763 -13.802  0.00  0.00    -0.047 A 
ATOM      4  C   UNL     1      25.470   1.417 -13.311  0.00  0.00    +0.004 A 
ATOM      5  C   UNL     1      25.030   1.182 -12.006  0.00  0.00    +0.009 A 
ATOM      6  C   UNL     1      25.713   0.282 -11.172  0.00  0.00    +0.012 A 
ATOM      7  C   UNL     1      26.863  -0.378 -11.668  0.00  0.00    +0.133 A 
ATOM      8  C   UNL     1      27.287  -0.150 -12.982  0.00  0.00    +0.050 A 
BRANCH   7   9
ATOM      9  O   UNL     1      27.573  -1.298 -10.885  0.00  0.00    -0.456 OA
BRANCH   9  10
ATOM     10  C   UNL     1      27.773  -1.171  -9.503  0.00  0.00    +0.128 A 
ATOM     11  C   UNL     1      27.468  -2.211  -8.605  0.00  0.00    +0.046 A 
ATOM     12  C   UNL     1      27.672  -2.036  -7.231  0.00  0.00    +0.004 A 
ATOM     13  C   UNL     1      28.174  -0.825  -6.745  0.00  0.00    +0.000 A 
ATOM     14  C   UNL     1      28.475   0.213  -7.631  0.00  0.00    +0.004 A 
ATOM     15  C   UNL     1      28.272   0.041  -9.005  0.00  0.00    +0.046 A 
ENDBRANCH   9  10
ENDBRANCH   7   9
ENDBRANCH   1   6
BRANCH   1  16
ATOM     16  N   UNL     1      23.745   0.140  -9.709  0.00  0.00    -0.307 N 
ATOM     17  C   UNL     1      22.902  -0.564 -10.634  0.00  0.00    +0.244 C 
ATOM     18  O   UNL     1      23.424  -1.261 -11.547  0.00  0.00    -0.270 OA
ATOM     19  H   UNL     1      23.314   0.789  -9.012  0.00  0.00    +0.149 HD
BRANCH  17  20
ATOM     20  C   UNL     1      21.425  -0.460 -10.555  0.00  0.00    +0.040 A 
ATOM     21  C   UNL     1      20.808   0.626  -9.915  0.00  0.00    +0.032 A 
ATOM     22  C   UNL     1      19.413   0.713  -9.855  0.00  0.00    +0.054 A 
ATOM     23  C   UNL     1      18.622  -0.288 -10.429  0.00  0.00    +0.042 A 
ATOM     24  C   UNL     1      19.215  -1.394 -11.067  0.00  0.00    +0.031 A 
ATOM     25  C   UNL     1      20.623  -1.467 -11.119  0.00  0.00    +0.036 A 
BRANCH  24  26
ATOM     26  N   UNL     1      18.397  -2.430 -11.663  0.00  0.00    -0.336 N 
ATOM     27  C   UNL     1      16.937  -2.393 -11.534  0.00  0.00    +0.129 C 
ATOM     28  C   UNL     1      19.017  -3.538 -12.398  0.00  0.00    +0.129 C 
ENDBRANCH  24  26
BRANCH  22  29
ATOM     29  C   UNL     1      18.791   1.834  -9.197  0.00  0.00    +0.099 C 
ATOM     30  N   UNL     1      18.290   2.733  -8.670  0.00  0.00    -0.191 NA
ENDBRANCH  22  29
ENDBRANCH  17  20
ENDBRANCH   1  16
TORSDOF 7
