REMARK  Name = 
REMARK  5 active torsions:
REMARK  status: ('A' for Active; 'I' for Inactive)
REMARK    1  A    between atoms: C_2  and  C_3
REMARK    2  A    between atoms: C_9  and  C_10
REMARK    3  A    between atoms: C_10  and  S_11
REMARK    4  A    between atoms: S_11  and  N_14
REMARK    5  A    between atoms: N_14  and  C_15
REMARK                            x       y       z     vdW  Elec       q    Type
REMARK                         _______ _______ _______ _____ _____    ______ ____
ROOT
ATOM      1  S   UNL     1      23.510  -0.684  -9.946  0.00  0.00    +0.034 S 
ATOM      2  O   UNL     1      23.904  -0.879 -11.385  0.00  0.00    -0.158 OA
ATOM      3  O   UNL     1      23.342  -2.030  -9.301  0.00  0.00    -0.158 OA
ENDROOT
BRANCH   1   4
ATOM      4  N   UNL     1      24.743   0.204  -9.094  0.00  0.00    -0.191 NA
ATOM      5  H   UNL     1      24.429   1.195  -9.131  0.00  0.00    +0.148 HD
BRANCH   4   6
ATOM      6  C   UNL     1      26.066  -0.002  -9.728  0.00  0.00    +0.082 C 
ATOM      7  C   UNL     1      27.141   0.167  -8.640  0.00  0.00    +0.021 C 
ATOM      8  C   UNL     1      27.657   1.603  -8.748  0.00  0.00    +0.002 C 
ATOM      9  C   UNL     1      26.921   2.244  -9.921  0.00  0.00    +0.008 C 
ATOM     10  C   UNL     1      26.439   1.075 -10.795  0.00  0.00    -0.012 C 
ATOM     11  C   UNL     1      25.241   1.501 -11.712  0.00  0.00    +0.008 C 
ATOM     12  C   UNL     1      25.714   2.046 -13.064  0.00  0.00    +0.001 C 
ATOM     13  C   UNL     1      26.448   0.963 -13.878  0.00  0.00    +0.000 C 
ATOM     14  C   UNL     1      27.165  -0.074 -12.991  0.00  0.00    +0.001 C 
ATOM     15  C   UNL     1      27.639   0.555 -11.676  0.00  0.00    +0.008 C 
ENDBRANCH   4   6
ENDBRANCH   1   4
BRANCH   1  16
ATOM     16  C   UNL     1      21.964   0.208  -9.844  0.00  0.00    +0.221 C 
BRANCH  16  23
ATOM     17  C   UNL     1      19.487  -0.179 -10.342  0.00  0.00    +0.059 A 
ATOM     18  C   UNL     1      18.468  -0.984 -10.872  0.00  0.00    +0.057 A 
ATOM     19  C   UNL     1      18.770  -2.226 -11.436  0.00  0.00    +0.125 A 
ATOM     20  F   UNL     1      17.779  -2.997 -11.947  0.00  0.00    -0.205 F 
ATOM     21  C   UNL     1      20.092  -2.672 -11.478  0.00  0.00    +0.039 A 
ATOM     22  C   UNL     1      21.116  -1.879 -10.954  0.00  0.00    +0.009 A 
ATOM     23  C   UNL     1      20.828  -0.633 -10.371  0.00  0.00    -0.007 A 
BRANCH  17  25
ATOM     24  N   UNL     1      18.855   2.136  -9.341  0.00  0.00    -0.191 NA
ATOM     25  C   UNL     1      19.136   1.105  -9.786  0.00  0.00    +0.100 C 
ENDBRANCH  17  25
ENDBRANCH  16  23
ENDBRANCH   1  16
TORSDOF 5
