REMARK  Name = 
REMARK  8 active torsions:
REMARK  status: ('A' for Active; 'I' for Inactive)
REMARK    1  A    between atoms: C_2  and  C_3
REMARK    2  A    between atoms: C_9  and  C_10
REMARK    3  A    between atoms: C_10  and  S_11
REMARK    4  A    between atoms: S_11  and  N_14
REMARK    5  A    between atoms: N_14  and  C_15
REMARK    6  A    between atoms: C_15  and  C_16
REMARK    7  A    between atoms: C_16  and  C_17
REMARK    8  A    between atoms: C_17  and  C_18
REMARK                            x       y       z     vdW  Elec       q    Type
REMARK                         _______ _______ _______ _____ _____    ______ ____
ROOT
ATOM      1  N   UNL     1      24.873   0.243  -9.809  0.00  0.00    -0.194 NA
ATOM      2  H   UNL     1      24.605   0.597  -8.862  0.00  0.00    +0.148 HD
ENDROOT
BRANCH   1   3
ATOM      3  S   UNL     1      23.529  -0.695 -10.387  0.00  0.00    +0.034 S 
ATOM      4  O   UNL     1      23.666  -0.874 -11.872  0.00  0.00    -0.158 OA
ATOM      5  O   UNL     1      23.545  -2.047  -9.729  0.00  0.00    -0.158 OA
BRANCH   3   6
ATOM      6  C   UNL     1      21.983   0.136 -10.037  0.00  0.00    +0.221 C 
BRANCH   6  13
ATOM      7  C   UNL     1      19.480  -0.243 -10.403  0.00  0.00    +0.059 A 
ATOM      8  C   UNL     1      18.428  -1.063 -10.835  0.00  0.00    +0.057 A 
ATOM      9  C   UNL     1      18.692  -2.327 -11.370  0.00  0.00    +0.125 A 
ATOM     10  F   UNL     1      17.669  -3.114 -11.784  0.00  0.00    -0.205 F 
ATOM     11  C   UNL     1      20.007  -2.782 -11.472  0.00  0.00    +0.039 A 
ATOM     12  C   UNL     1      21.064  -1.974 -11.045  0.00  0.00    +0.009 A 
ATOM     13  C   UNL     1      20.817  -0.695 -10.516  0.00  0.00    -0.007 A 
BRANCH   7  15
ATOM     14  N   UNL     1      18.910   2.086  -9.395  0.00  0.00    -0.191 NA
ATOM     15  C   UNL     1      19.163   1.050  -9.844  0.00  0.00    +0.100 C 
ENDBRANCH   7  15
ENDBRANCH   6  13
ENDBRANCH   3   6
ENDBRANCH   1   3
BRANCH   1  16
ATOM     16  C   UNL     1      26.065  -0.604  -9.668  0.00  0.00    +0.112 C 
BRANCH  16  17
ATOM     17  C   UNL     1      27.335   0.218  -9.284  0.00  0.00    -0.011 C 
ATOM     18  C   UNL     1      28.385  -0.674  -8.589  0.00  0.00    +0.008 C 
ATOM     19  C   UNL     1      28.155  -0.551  -7.083  0.00  0.00    +0.001 C 
ATOM     20  C   UNL     1      27.212   0.628  -6.865  0.00  0.00    +0.001 C 
ATOM     21  C   UNL     1      27.006   1.285  -8.224  0.00  0.00    +0.008 C 
BRANCH  17  22
ATOM     22  C   UNL     1      27.962   0.858 -10.562  0.00  0.00    +0.043 C 
BRANCH  22  23
ATOM     23  C   UNL     1      26.991   1.018 -11.712  0.00  0.00    -0.047 A 
ATOM     24  C   UNL     1      27.052   0.152 -12.818  0.00  0.00    +0.003 A 
ATOM     25  C   UNL     1      26.142   0.284 -13.871  0.00  0.00    +0.000 A 
ATOM     26  C   UNL     1      25.167   1.284 -13.832  0.00  0.00    +0.000 A 
ATOM     27  C   UNL     1      25.103   2.156 -12.742  0.00  0.00    +0.000 A 
ATOM     28  C   UNL     1      26.012   2.027 -11.687  0.00  0.00    +0.003 A 
ENDBRANCH  22  23
ENDBRANCH  17  22
ENDBRANCH  16  17
ENDBRANCH   1  16
TORSDOF 8
