REMARK  Name = 
REMARK  4 active torsions:
REMARK  status: ('A' for Active; 'I' for Inactive)
REMARK    1  A    between atoms: N_6  and  C_7
REMARK    2  A    between atoms: C_7  and  C_8
REMARK    3  A    between atoms: C_13  and  O_14
REMARK    4  A    between atoms: O_14  and  C_15
REMARK                            x       y       z     vdW  Elec       q    Type
REMARK                         _______ _______ _______ _____ _____    ______ ____
ROOT
ATOM      1  C   UNL     1      23.969  -0.322 -10.629  0.00  0.00    +0.182 C 
ENDROOT
BRANCH   1   7
ATOM      2  O   UNL     1      18.676  -3.055 -12.121  0.00  0.00    -0.150 OA
ATOM      3  S   UNL     1      19.534  -2.708 -10.937  0.00  0.00    +0.074 S 
ATOM      4  O   UNL     1      19.203  -3.532  -9.725  0.00  0.00    -0.150 OA
ATOM      5  N   UNL     1      21.206  -2.794 -11.323  0.00  0.00    -0.199 N 
ATOM      6  C   UNL     1      21.818  -1.521 -11.104  0.00  0.00    +0.142 C 
ATOM      7  N   UNL     1      23.119  -1.440 -11.036  0.00  0.00    -0.263 NA
ATOM      8  C   UNL     1      20.823  -0.465 -10.754  0.00  0.00    +0.042 A 
ATOM      9  C   UNL     1      20.986   0.928 -10.674  0.00  0.00    +0.013 A 
ATOM     10  C   UNL     1      19.882   1.734 -10.353  0.00  0.00    +0.001 A 
ATOM     11  C   UNL     1      18.616   1.160 -10.154  0.00  0.00    +0.002 A 
ATOM     12  C   UNL     1      18.440  -0.221 -10.295  0.00  0.00    +0.029 A 
ATOM     13  C   UNL     1      19.549  -1.008 -10.599  0.00  0.00    +0.119 A 
ATOM     14  H   UNL     1      21.730  -3.687 -11.457  0.00  0.00    +0.175 HD
ENDBRANCH   1   7
BRANCH   1  15
ATOM     15  C   UNL     1      24.910   0.121 -11.732  0.00  0.00    +0.016 A 
ATOM     16  C   UNL     1      24.413   0.946 -12.757  0.00  0.00    +0.009 A 
ATOM     17  C   UNL     1      25.242   1.363 -13.800  0.00  0.00    +0.001 A 
ATOM     18  C   UNL     1      26.573   0.949 -13.842  0.00  0.00    +0.004 A 
ATOM     19  C   UNL     1      27.073   0.101 -12.854  0.00  0.00    +0.046 A 
ATOM     20  C   UNL     1      26.243  -0.347 -11.808  0.00  0.00    +0.133 A 
BRANCH  20  21
ATOM     21  O   UNL     1      26.733  -1.207 -10.812  0.00  0.00    -0.456 OA
BRANCH  21  22
ATOM     22  C   UNL     1      27.074  -0.839  -9.503  0.00  0.00    +0.131 A 
ATOM     23  C   UNL     1      27.416  -1.846  -8.592  0.00  0.00    +0.046 A 
ATOM     24  C   UNL     1      27.777  -1.519  -7.281  0.00  0.00    +0.006 A 
ATOM     25  C   UNL     1      27.812  -0.180  -6.878  0.00  0.00    +0.038 A 
ATOM     26  C   UNL     1      27.492   0.832  -7.787  0.00  0.00    +0.127 A 
ATOM     27  F   UNL     1      27.542   2.130  -7.400  0.00  0.00    -0.205 F 
ATOM     28  C   UNL     1      27.130   0.507  -9.099  0.00  0.00    +0.084 A 
ENDBRANCH  21  22
ENDBRANCH  20  21
ENDBRANCH   1  15
TORSDOF 4
