REMARK  Name = 
REMARK  8 active torsions:
REMARK  status: ('A' for Active; 'I' for Inactive)
REMARK    1  A    between atoms: C_1  and  C_2
REMARK    2  A    between atoms: C_5  and  C_6
REMARK    3  A    between atoms: C_12  and  O_13
REMARK    4  A    between atoms: C_14  and  C_15
REMARK    5  A    between atoms: C_15  and  C_16
REMARK    6  A    between atoms: C_16  and  C_17
REMARK    7  A    between atoms: C_24  and  S_25
REMARK    8  A    between atoms: S_25  and  C_26
REMARK                            x       y       z     vdW  Elec       q    Type
REMARK                         _______ _______ _______ _____ _____    ______ ____
ROOT
ATOM      1  C   UNL     1      24.327  -0.493 -10.370  0.00  0.00    +0.247 C 
ATOM      2  O   UNL     1      24.883  -1.087  -9.407  0.00  0.00    -0.270 OA
ATOM      3  N   UNL     1      25.077   0.463 -11.158  0.00  0.00    -0.292 N 
ATOM      4  C   UNL     1      24.408   1.481 -11.985  0.00  0.00    +0.108 C 
ATOM      5  C   UNL     1      24.853   1.350 -13.446  0.00  0.00    +0.021 C 
ATOM      6  C   UNL     1      26.383   1.330 -13.567  0.00  0.00    +0.035 C 
ATOM      7  C   UNL     1      27.004   0.250 -12.664  0.00  0.00    +0.135 C 
ATOM      8  C   UNL     1      26.553   0.409 -11.190  0.00  0.00    +0.105 C 
ENDROOT
BRANCH   1  13
ATOM      9  C   UNL     1      18.792  -1.826 -11.493  0.00  0.00    +0.046 C 
ATOM     10  C   UNL     1      20.213  -1.449 -11.159  0.00  0.00    -0.026 A 
ATOM     11  C   UNL     1      21.220  -2.411 -11.344  0.00  0.00    +0.006 A 
ATOM     12  C   UNL     1      22.557  -2.104 -11.086  0.00  0.00    +0.013 A 
ATOM     13  C   UNL     1      22.917  -0.820 -10.662  0.00  0.00    +0.039 A 
ATOM     14  C   UNL     1      21.921   0.145 -10.466  0.00  0.00    +0.040 A 
ATOM     15  C   UNL     1      20.568  -0.147 -10.721  0.00  0.00    +0.091 A 
BRANCH  15  16
ATOM     16  S   UNL     1      19.366   1.137 -10.483  0.00  0.00    -0.006 S 
ATOM     17  C   UNL     1      18.475   0.898  -8.958  0.00  0.00    +0.200 C 
ATOM     18  O   UNL     1      20.045   2.479 -10.476  0.00  0.00    -0.170 OA
ATOM     19  O   UNL     1      18.367   1.119 -11.608  0.00  0.00    -0.170 OA
ENDBRANCH  15  16
ENDBRANCH   1  13
BRANCH   7  20
ATOM     20  O   UNL     1      28.404   0.296 -12.775  0.00  0.00    -0.390 OA
ATOM     21  H   UNL     1      28.694   1.156 -12.372  0.00  0.00    +0.210 HD
ENDBRANCH   7  20
BRANCH   8  22
ATOM     22  C   UNL     1      27.187   1.655 -10.513  0.00  0.00    +0.030 C 
BRANCH  22  23
ATOM     23  C   UNL     1      27.600   1.433  -9.044  0.00  0.00    +0.037 C 
BRANCH  23  24
ATOM     24  C   UNL     1      27.652  -0.024  -8.640  0.00  0.00    -0.047 A 
ATOM     25  C   UNL     1      28.466  -0.940  -9.337  0.00  0.00    +0.003 A 
ATOM     26  C   UNL     1      28.530  -2.277  -8.933  0.00  0.00    +0.000 A 
ATOM     27  C   UNL     1      27.805  -2.709  -7.819  0.00  0.00    +0.000 A 
ATOM     28  C   UNL     1      27.026  -1.801  -7.097  0.00  0.00    +0.000 A 
ATOM     29  C   UNL     1      26.961  -0.461  -7.495  0.00  0.00    +0.003 A 
ENDBRANCH  23  24
ENDBRANCH  22  23
ENDBRANCH   8  22
TORSDOF 6
