REMARK  Name = 
REMARK  10 active torsions:
REMARK  status: ('A' for Active; 'I' for Inactive)
REMARK    1  A    between atoms: C_1  and  C_2
REMARK    2  A    between atoms: C_2  and  C_3
REMARK    3  A    between atoms: C_6  and  C_7
REMARK    4  A    between atoms: C_8  and  C_9
REMARK    5  A    between atoms: C_9  and  N_10
REMARK    6  A    between atoms: N_10  and  C_11
REMARK    7  A    between atoms: C_11  and  C_12
REMARK    8  A    between atoms: C_11  and  C_22
REMARK    9  A    between atoms: C_16  and  S_17
REMARK   10  A    between atoms: S_17  and  C_18
REMARK                            x       y       z     vdW  Elec       q    Type
REMARK                         _______ _______ _______ _____ _____    ______ ____
ROOT
ATOM      1  C   UNL     1      24.387  -0.693 -10.274  0.00  0.00    +0.118 C 
ENDROOT
BRANCH   1   2
ATOM      2  C   UNL     1      25.119  -0.058 -11.456  0.00  0.00    +0.009 A 
ATOM      3  C   UNL     1      24.494   0.859 -12.331  0.00  0.00    +0.011 A 
ATOM      4  C   UNL     1      25.187   1.385 -13.426  0.00  0.00    +0.039 A 
ATOM      5  C   UNL     1      26.504   0.997 -13.676  0.00  0.00    +0.126 A 
ATOM      6  F   UNL     1      27.172   1.507 -14.741  0.00  0.00    -0.205 F 
ATOM      7  C   UNL     1      27.130   0.073 -12.835  0.00  0.00    +0.077 A 
ATOM      8  C   UNL     1      26.444  -0.460 -11.739  0.00  0.00    +0.131 A 
ATOM      9  F   UNL     1      27.074  -1.376 -10.957  0.00  0.00    -0.205 F 
ENDBRANCH   1   2
BRANCH   1  10
ATOM     10  C   UNL     1      22.931  -0.934 -10.624  0.00  0.00    -0.024 A 
ATOM     11  C   UNL     1      22.535  -2.156 -11.195  0.00  0.00    +0.005 A 
ATOM     12  C   UNL     1      21.200  -2.378 -11.539  0.00  0.00    +0.002 A 
ATOM     13  C   UNL     1      20.244  -1.384 -11.320  0.00  0.00    +0.027 A 
ATOM     14  C   UNL     1      20.619  -0.164 -10.743  0.00  0.00    +0.088 A 
ATOM     15  C   UNL     1      21.958   0.057 -10.395  0.00  0.00    +0.032 A 
BRANCH  14  16
ATOM     16  S   UNL     1      19.431   1.112 -10.495  0.00  0.00    -0.006 S 
ATOM     17  C   UNL     1      18.605   0.844  -8.942  0.00  0.00    +0.200 C 
ATOM     18  O   UNL     1      20.107   2.454 -10.474  0.00  0.00    -0.170 OA
ATOM     19  O   UNL     1      18.428   1.091 -11.613  0.00  0.00    -0.170 OA
ENDBRANCH  14  16
ENDBRANCH   1  10
BRANCH   1  20
ATOM     20  N   UNL     1      24.480   0.075  -9.013  0.00  0.00    -0.301 NA
ATOM     21  H   UNL     1      24.748   1.070  -9.182  0.00  0.00    +0.123 HD
BRANCH  20  22
ATOM     22  C   UNL     1      25.398  -0.524  -8.032  0.00  0.00    +0.122 C 
BRANCH  22  28
ATOM     23  C   UNL     1      27.307   1.158  -8.537  0.00  0.00    +0.088 A 
ATOM     24  N   UNL     1      28.641   1.096  -8.712  0.00  0.00    -0.083 NA
ATOM     25  O   UNL     1      28.986  -0.155  -8.595  0.00  0.00    -0.359 OA
ATOM     26  C   UNL     1      27.943  -0.915  -8.359  0.00  0.00    +0.139 A 
ATOM     27  C   UNL     1      28.005  -2.397  -8.190  0.00  0.00    +0.089 C 
ATOM     28  C   UNL     1      26.816  -0.117  -8.321  0.00  0.00    +0.031 A 
BRANCH  23  30
ATOM     29  C   UNL     1      26.706   3.049 -10.031  0.00  0.00    +0.010 C 
ATOM     30  C   UNL     1      26.512   2.424  -8.655  0.00  0.00    +0.056 C 
ENDBRANCH  23  30
ENDBRANCH  22  28
ENDBRANCH  20  22
ENDBRANCH   1  20
TORSDOF 7
