REMARK  Name = 
REMARK  10 active torsions:
REMARK  status: ('A' for Active; 'I' for Inactive)
REMARK    1  A    between atoms: C_1  and  C_2
REMARK    2  A    between atoms: C_2  and  N_3
REMARK    3  A    between atoms: N_3  and  C_4
REMARK    4  A    between atoms: C_4  and  C_5
REMARK    5  A    between atoms: C_6  and  C_8
REMARK    6  A    between atoms: C_8  and  N_9
REMARK    7  A    between atoms: N_9  and  S_10
REMARK    8  A    between atoms: S_10  and  C_13
REMARK    9  A    between atoms: C_13  and  C_14
REMARK   10  A    between atoms: C_20  and  C_21
REMARK                            x       y       z     vdW  Elec       q    Type
REMARK                         _______ _______ _______ _____ _____    ______ ____
ROOT
ATOM      1  N   UNL     1      25.067   0.358 -10.032  0.00  0.00    -0.179 NA
ATOM      2  H   UNL     1      24.752   1.074  -9.337  0.00  0.00    +0.149 HD
ENDROOT
BRANCH   1   3
ATOM      3  C   UNL     1      26.176   0.842 -10.908  0.00  0.00    +0.115 C 
ATOM      4  C   UNL     1      25.698   2.084 -11.728  0.00  0.00    +0.033 C 
ATOM      5  C   UNL     1      24.825   1.706 -12.923  0.00  0.00    +0.002 C 
ATOM      6  C   UNL     1      25.585   0.781 -13.870  0.00  0.00    +0.000 C 
ATOM      7  C   UNL     1      26.011  -0.501 -13.155  0.00  0.00    +0.002 C 
ATOM      8  C   UNL     1      26.813  -0.209 -11.873  0.00  0.00    +0.033 C 
BRANCH   3  10
ATOM      9  N   UNL     1      27.121   2.278  -8.950  0.00  0.00    -0.300 N 
ATOM     10  C   UNL     1      27.282   1.243  -9.935  0.00  0.00    +0.237 C 
ATOM     11  O   UNL     1      28.385   0.631  -9.987  0.00  0.00    -0.274 OA
BRANCH   9  13
ATOM     12  C   UNL     1      27.335   0.403  -7.365  0.00  0.00    +0.024 C 
ATOM     13  C   UNL     1      27.237   1.918  -7.531  0.00  0.00    +0.104 C 
ENDBRANCH   9  13
BRANCH   9  14
ATOM     14  C   UNL     1      27.284   3.681  -9.344  0.00  0.00    +0.104 C 
ATOM     15  C   UNL     1      25.941   4.403  -9.336  0.00  0.00    +0.024 C 
ENDBRANCH   9  14
ENDBRANCH   3  10
ENDBRANCH   1   3
BRANCH   1  16
ATOM     16  S   UNL     1      23.689  -0.578 -10.565  0.00  0.00    +0.034 S 
ATOM     17  O   UNL     1      23.670  -0.818 -12.046  0.00  0.00    -0.158 OA
ATOM     18  O   UNL     1      23.790  -1.919  -9.894  0.00  0.00    -0.158 OA
BRANCH  16  19
ATOM     19  C   UNL     1      22.159   0.191 -10.036  0.00  0.00    +0.221 C 
BRANCH  19  20
ATOM     20  C   UNL     1      20.969  -0.633 -10.469  0.00  0.00    -0.007 A 
ATOM     21  C   UNL     1      21.169  -1.972 -10.838  0.00  0.00    +0.009 A 
ATOM     22  C   UNL     1      20.089  -2.773 -11.214  0.00  0.00    +0.039 A 
ATOM     23  C   UNL     1      18.794  -2.252 -11.218  0.00  0.00    +0.125 A 
ATOM     24  F   UNL     1      17.747  -3.035 -11.578  0.00  0.00    -0.205 F 
ATOM     25  C   UNL     1      18.576  -0.928 -10.842  0.00  0.00    +0.057 A 
ATOM     26  C   UNL     1      19.652  -0.113 -10.461  0.00  0.00    +0.059 A 
BRANCH  26  27
ATOM     27  C   UNL     1      19.379   1.243 -10.055  0.00  0.00    +0.100 C 
ATOM     28  N   UNL     1      19.162   2.330  -9.730  0.00  0.00    -0.191 NA
ENDBRANCH  26  27
ENDBRANCH  19  20
ENDBRANCH  16  19
ENDBRANCH   1  16
TORSDOF 8
