REMARK  Name = 
REMARK  9 active torsions:
REMARK  status: ('A' for Active; 'I' for Inactive)
REMARK    1  A    between atoms: C_1  and  C_2
REMARK    2  A    between atoms: N_5  and  C_6
REMARK    3  A    between atoms: C_6  and  C_7
REMARK    4  A    between atoms: C_6  and  C_22
REMARK    5  A    between atoms: C_7  and  N_8
REMARK    6  A    between atoms: N_8  and  C_9
REMARK    7  A    between atoms: C_12  and  N_13
REMARK    8  A    between atoms: C_16  and  S_17
REMARK    9  A    between atoms: S_17  and  C_18
REMARK                            x       y       z     vdW  Elec       q    Type
REMARK                         _______ _______ _______ _____ _____    ______ ____
ROOT
ATOM      1  C   UNL     1      25.423  -0.252  -9.466  0.00  0.00    +0.125 C 
ENDROOT
BRANCH   1   2
ATOM      2  N   UNL     1      24.051   0.149  -9.142  0.00  0.00    -0.342 N 
ATOM      3  H   UNL     1      23.927   0.913  -8.439  0.00  0.00    +0.146 HD
BRANCH   2   4
ATOM      4  C   UNL     1      22.870  -0.462  -9.696  0.00  0.00    +0.029 A 
ATOM      5  C   UNL     1      22.833  -1.818 -10.054  0.00  0.00    +0.025 A 
ATOM      6  C   UNL     1      21.682  -2.367 -10.618  0.00  0.00    +0.036 A 
ATOM      7  C   UNL     1      20.541  -1.580 -10.836  0.00  0.00    +0.151 A 
ATOM      8  C   UNL     1      20.550  -0.222 -10.436  0.00  0.00    +0.120 A 
ATOM      9  C   UNL     1      21.721   0.321  -9.881  0.00  0.00    +0.052 A 
BRANCH   8  10
ATOM     10  S   UNL     1      19.110   0.802 -10.571  0.00  0.00    -0.004 S 
ATOM     11  C   UNL     1      18.420   1.196  -8.975  0.00  0.00    +0.200 C 
ATOM     12  O   UNL     1      19.468   2.082 -11.273  0.00  0.00    -0.170 OA
ATOM     13  O   UNL     1      18.048   0.080 -11.353  0.00  0.00    -0.170 OA
ENDBRANCH   8  10
BRANCH   7  14
ATOM     14  N   UNL     1      19.398  -2.171 -11.476  0.00  0.00    +0.058 N 
ATOM     15  O   UNL     1      18.336  -2.323 -10.839  0.00  0.00    -0.126 OA
ATOM     16  O   UNL     1      19.534  -2.790 -12.697  0.00  0.00    -0.126 OA
ENDBRANCH   7  14
ENDBRANCH   2   4
ENDBRANCH   1   2
BRANCH   1  17
ATOM     17  C   UNL     1      26.282   0.949  -9.961  0.00  0.00    +0.104 C 
BRANCH  17  22
ATOM     18  C   UNL     1      28.060  -2.743  -7.191  0.00  0.00    +0.007 C 
ATOM     19  C   UNL     1      27.650  -1.461  -7.923  0.00  0.00    -0.012 C 
ATOM     20  C   UNL     1      28.285  -1.396  -9.331  0.00  0.00    +0.018 C 
ATOM     21  C   UNL     1      28.621   0.045  -9.765  0.00  0.00    +0.085 C 
ATOM     22  N   UNL     1      27.619   1.033  -9.297  0.00  0.00    -0.294 NA
ATOM     23  C   UNL     1      27.538   1.069  -7.805  0.00  0.00    +0.085 C 
ATOM     24  C   UNL     1      28.021  -0.219  -7.102  0.00  0.00    +0.018 C 
ENDBRANCH  17  22
BRANCH  17  25
ATOM     25  C   UNL     1      26.454   0.786 -11.464  0.00  0.00    -0.029 A 
ATOM     26  C   UNL     1      26.870   1.873 -12.254  0.00  0.00    +0.005 A 
ATOM     27  C   UNL     1      27.005   1.728 -13.639  0.00  0.00    +0.000 A 
ATOM     28  C   UNL     1      26.722   0.501 -14.246  0.00  0.00    +0.000 A 
ATOM     29  C   UNL     1      26.302  -0.583 -13.471  0.00  0.00    +0.000 A 
ATOM     30  C   UNL     1      26.164  -0.443 -12.087  0.00  0.00    +0.005 A 
ENDBRANCH  17  25
ENDBRANCH   1  17
TORSDOF 7
