REMARK  Name = 
REMARK  6 active torsions:
REMARK  status: ('A' for Active; 'I' for Inactive)
REMARK    1  A    between atoms: C_1  and  C_2
REMARK    2  A    between atoms: C_5  and  C_6
REMARK    3  A    between atoms: C_11  and  C_12
REMARK    4  A    between atoms: C_13  and  C_14
REMARK    5  A    between atoms: C_22  and  S_23
REMARK    6  A    between atoms: S_23  and  C_24
REMARK                            x       y       z     vdW  Elec       q    Type
REMARK                         _______ _______ _______ _____ _____    ______ ____
ROOT
ATOM      1  C   UNL     1      24.074  -0.685 -10.758  0.00  0.00    +0.247 C 
ATOM      2  O   UNL     1      24.702  -1.121  -9.756  0.00  0.00    -0.270 OA
ATOM      3  N   UNL     1      24.770   0.091 -11.754  0.00  0.00    -0.290 N 
ATOM      4  C   UNL     1      24.110   0.844 -12.811  0.00  0.00    +0.109 C 
ATOM      5  C   UNL     1      25.196   1.698 -13.453  0.00  0.00    +0.024 C 
ATOM      6  C   UNL     1      26.530   1.061 -13.042  0.00  0.00    +0.012 C 
ATOM      7  C   UNL     1      27.057   0.133 -14.146  0.00  0.00    +0.010 C 
ATOM      8  C   UNL     1      26.218   0.276 -11.753  0.00  0.00    +0.109 C 
ENDROOT
BRANCH   1  13
ATOM      9  C   UNL     1      18.392  -1.782 -11.109  0.00  0.00    +0.046 C 
ATOM     10  C   UNL     1      19.860  -1.465 -11.001  0.00  0.00    -0.026 A 
ATOM     11  C   UNL     1      20.792  -2.491 -11.234  0.00  0.00    +0.006 A 
ATOM     12  C   UNL     1      22.162  -2.240 -11.156  0.00  0.00    +0.013 A 
ATOM     13  C   UNL     1      22.628  -0.956 -10.859  0.00  0.00    +0.039 A 
ATOM     14  C   UNL     1      21.709   0.072 -10.612  0.00  0.00    +0.040 A 
ATOM     15  C   UNL     1      20.325  -0.161 -10.695  0.00  0.00    +0.091 A 
BRANCH  15  16
ATOM     16  S   UNL     1      19.197   1.178 -10.400  0.00  0.00    -0.006 S 
ATOM     17  C   UNL     1      18.430   1.085  -8.793  0.00  0.00    +0.200 C 
ATOM     18  O   UNL     1      18.113   1.152 -11.441  0.00  0.00    -0.170 OA
ATOM     19  O   UNL     1      19.936   2.484 -10.477  0.00  0.00    -0.170 OA
ENDBRANCH  15  16
ENDBRANCH   1  13
BRANCH   8  20
ATOM     20  C   UNL     1      26.677   1.041 -10.523  0.00  0.00    -0.024 A 
ATOM     21  C   UNL     1      27.416   0.412  -9.502  0.00  0.00    +0.005 A 
ATOM     22  C   UNL     1      27.804   1.129  -8.367  0.00  0.00    +0.003 A 
ATOM     23  C   UNL     1      27.449   2.473  -8.232  0.00  0.00    +0.038 A 
ATOM     24  C   UNL     1      26.702   3.103  -9.230  0.00  0.00    +0.124 A 
ATOM     25  F   UNL     1      26.351   4.404  -9.094  0.00  0.00    -0.205 F 
ATOM     26  C   UNL     1      26.313   2.389 -10.369  0.00  0.00    +0.043 A 
ENDBRANCH   8  20
TORSDOF 3
