REMARK  Name = 
REMARK  8 active torsions:
REMARK  status: ('A' for Active; 'I' for Inactive)
REMARK    1  A    between atoms: C_1  and  C_2
REMARK    2  A    between atoms: C_5  and  C_6
REMARK    3  A    between atoms: C_12  and  C_13
REMARK    4  A    between atoms: C_13  and  C_14
REMARK    5  A    between atoms: C_14  and  O_15
REMARK    6  A    between atoms: C_14  and  C_16
REMARK    7  A    between atoms: C_24  and  S_25
REMARK    8  A    between atoms: S_25  and  C_26
REMARK                            x       y       z     vdW  Elec       q    Type
REMARK                         _______ _______ _______ _____ _____    ______ ____
ROOT
ATOM      1  C   UNL     1      24.299  -0.220 -10.410  0.00  0.00    +0.247 C 
ATOM      2  O   UNL     1      24.781  -0.331  -9.251  0.00  0.00    -0.270 OA
ATOM      3  N   UNL     1      25.099   0.349 -11.468  0.00  0.00    -0.294 N 
ATOM      4  C   UNL     1      24.617   0.583 -12.821  0.00  0.00    +0.108 C 
ATOM      5  C   UNL     1      25.764   1.262 -13.554  0.00  0.00    +0.021 C 
ATOM      6  C   UNL     1      27.008   0.971 -12.722  0.00  0.00    +0.024 C 
ATOM      7  C   UNL     1      26.497   0.730 -11.296  0.00  0.00    +0.079 C 
ENDROOT
BRANCH   1  12
ATOM      8  C   UNL     1      18.830  -1.959 -11.232  0.00  0.00    +0.046 C 
ATOM      9  C   UNL     1      20.238  -1.458 -11.040  0.00  0.00    -0.026 A 
ATOM     10  C   UNL     1      21.295  -2.375 -11.167  0.00  0.00    +0.006 A 
ATOM     11  C   UNL     1      22.615  -1.976 -10.970  0.00  0.00    +0.013 A 
ATOM     12  C   UNL     1      22.908  -0.648 -10.639  0.00  0.00    +0.039 A 
ATOM     13  C   UNL     1      21.860   0.267 -10.470  0.00  0.00    +0.040 A 
ATOM     14  C   UNL     1      20.524  -0.119 -10.668  0.00  0.00    +0.091 A 
BRANCH  14  15
ATOM     15  S   UNL     1      19.250   1.097 -10.441  0.00  0.00    -0.006 S 
ATOM     16  C   UNL     1      18.433   0.878  -8.874  0.00  0.00    +0.200 C 
ATOM     17  O   UNL     1      19.850   2.475 -10.459  0.00  0.00    -0.170 OA
ATOM     18  O   UNL     1      18.251   1.003 -11.559  0.00  0.00    -0.170 OA
ENDBRANCH  14  15
ENDBRANCH   1  12
BRANCH   7  19
ATOM     19  C   UNL     1      26.610   2.004 -10.415  0.00  0.00    +0.058 C 
BRANCH  19  20
ATOM     20  C   UNL     1      27.616   1.882  -9.254  0.00  0.00    +0.146 C 
BRANCH  20  21
ATOM     21  C   UNL     1      27.696   0.466  -8.717  0.00  0.00    -0.019 A 
ATOM     22  C   UNL     1      27.000   0.083  -7.553  0.00  0.00    +0.009 A 
ATOM     23  C   UNL     1      27.052  -1.240  -7.104  0.00  0.00    +0.039 A 
ATOM     24  C   UNL     1      27.788  -2.193  -7.811  0.00  0.00    +0.123 A 
ATOM     25  F   UNL     1      27.834  -3.476  -7.374  0.00  0.00    -0.205 F 
ATOM     26  C   UNL     1      28.474  -1.825  -8.971  0.00  0.00    +0.039 A 
ATOM     27  C   UNL     1      28.426  -0.505  -9.426  0.00  0.00    +0.009 A 
ENDBRANCH  20  21
BRANCH  20  28
ATOM     28  O   UNL     1      27.286   2.797  -8.239  0.00  0.00    -0.387 OA
ATOM     29  H   UNL     1      28.143   3.114  -7.849  0.00  0.00    +0.210 HD
ENDBRANCH  20  28
ENDBRANCH  19  20
ENDBRANCH   7  19
TORSDOF 6
