REMARK  Name = 
REMARK  12 active torsions:
REMARK  status: ('A' for Active; 'I' for Inactive)
REMARK    1  A    between atoms: C_1  and  C_2
REMARK    2  A    between atoms: C_5  and  C_6
REMARK    3  A    between atoms: C_6  and  N_7
REMARK    4  A    between atoms: C_6  and  C_21
REMARK    5  A    between atoms: C_8  and  C_10
REMARK    6  A    between atoms: C_12  and  C_13
REMARK    7  A    between atoms: C_16  and  N_17
REMARK    8  A    between atoms: N_17  and  C_18
REMARK    9  A    between atoms: N_17  and  C_19
REMARK   10  A    between atoms: C_21  and  C_22
REMARK   11  A    between atoms: C_21  and  S_23
REMARK   12  A    between atoms: S_23  and  C_24
REMARK                            x       y       z     vdW  Elec       q    Type
REMARK                         _______ _______ _______ _____ _____    ______ ____
ROOT
ATOM      1  N   UNL     1      23.854   0.166  -9.606  0.00  0.00    -0.303 N 
ATOM      2  C   UNL     1      23.007  -0.867 -10.139  0.00  0.00    +0.245 C 
ATOM      3  O   UNL     1      23.519  -1.954 -10.524  0.00  0.00    -0.270 OA
ATOM      4  H   UNL     1      23.408   0.931  -9.056  0.00  0.00    +0.150 HD
ENDROOT
BRANCH   2   5
ATOM      5  C   UNL     1      21.541  -0.676 -10.237  0.00  0.00    +0.040 A 
ATOM      6  C   UNL     1      20.931   0.481  -9.727  0.00  0.00    +0.032 A 
ATOM      7  C   UNL     1      19.550   0.656  -9.833  0.00  0.00    +0.054 A 
ATOM      8  C   UNL     1      18.764  -0.320 -10.454  0.00  0.00    +0.042 A 
ATOM      9  C   UNL     1      19.349  -1.485 -10.986  0.00  0.00    +0.031 A 
ATOM     10  C   UNL     1      20.746  -1.646 -10.872  0.00  0.00    +0.036 A 
BRANCH   9  11
ATOM     11  N   UNL     1      18.535  -2.497 -11.633  0.00  0.00    -0.336 N 
ATOM     12  C   UNL     1      17.070  -2.446 -11.544  0.00  0.00    +0.129 C 
ATOM     13  C   UNL     1      19.162  -3.587 -12.390  0.00  0.00    +0.129 C 
ENDBRANCH   9  11
BRANCH   7  14
ATOM     14  C   UNL     1      18.935   1.850  -9.309  0.00  0.00    +0.099 C 
ATOM     15  N   UNL     1      18.441   2.808  -8.889  0.00  0.00    -0.191 NA
ENDBRANCH   7  14
ENDBRANCH   2   5
BRANCH   1  16
ATOM     16  C   UNL     1      25.318   0.109  -9.731  0.00  0.00    +0.127 C 
BRANCH  16  21
ATOM     17  C   UNL     1      27.114   0.981 -15.219  0.00  0.00    +0.044 C 
ATOM     18  C   UNL     1      26.657   0.785 -13.803  0.00  0.00    -0.050 A 
ATOM     19  C   UNL     1      27.473   0.110 -12.884  0.00  0.00    +0.004 A 
ATOM     20  C   UNL     1      27.032  -0.106 -11.576  0.00  0.00    +0.006 A 
ATOM     21  C   UNL     1      25.761   0.333 -11.168  0.00  0.00    -0.025 A 
ATOM     22  C   UNL     1      24.943   1.005 -12.098  0.00  0.00    +0.006 A 
ATOM     23  C   UNL     1      25.385   1.219 -13.406  0.00  0.00    +0.004 A 
ENDBRANCH  16  21
BRANCH  16  24
ATOM     24  C   UNL     1      26.046   1.073  -8.747  0.00  0.00    +0.152 C 
ATOM     25  C   UNL     1      26.467   2.374  -9.445  0.00  0.00    +0.034 C 
BRANCH  24  26
ATOM     26  S   UNL     1      27.444   0.328  -7.878  0.00  0.00    -0.029 S 
ATOM     27  C   UNL     1      27.430  -1.443  -8.069  0.00  0.00    +0.194 C 
ATOM     28  O   UNL     1      27.406   0.652  -6.412  0.00  0.00    -0.174 OA
ATOM     29  O   UNL     1      28.729   0.844  -8.463  0.00  0.00    -0.174 OA
ENDBRANCH  24  26
ENDBRANCH  16  24
ENDBRANCH   1  16
TORSDOF 7
