REMARK  Name = 
REMARK  6 active torsions:
REMARK  status: ('A' for Active; 'I' for Inactive)
REMARK    1  A    between atoms: C_1  and  S_2
REMARK    2  A    between atoms: S_2  and  C_5
REMARK    3  A    between atoms: C_7  and  C_8
REMARK    4  A    between atoms: N_10  and  C_11
REMARK    5  A    between atoms: C_16  and  O_17
REMARK    6  A    between atoms: O_17  and  C_18
REMARK                            x       y       z     vdW  Elec       q    Type
REMARK                         _______ _______ _______ _____ _____    ______ ____
ROOT
ATOM      1  C   UNL     1      24.323  -0.513 -10.282  0.00  0.00    +0.248 C 
ATOM      2  O   UNL     1      25.195  -0.887 -11.114  0.00  0.00    -0.270 OA
ATOM      3  N   UNL     1      24.722   0.245  -9.129  0.00  0.00    -0.279 N 
ATOM      4  H   UNL     1      24.051   0.946  -8.743  0.00  0.00    +0.155 HD
ENDROOT
BRANCH   1   7
ATOM      5  C   UNL     1      20.550  -0.146 -10.623  0.00  0.00    +0.102 A 
ATOM      6  C   UNL     1      21.904   0.157 -10.404  0.00  0.00    +0.041 A 
ATOM      7  C   UNL     1      22.895  -0.834 -10.524  0.00  0.00    +0.039 A 
ATOM      8  C   UNL     1      22.511  -2.144 -10.847  0.00  0.00    +0.014 A 
ATOM      9  C   UNL     1      21.168  -2.455 -11.061  0.00  0.00    +0.018 A 
ATOM     10  C   UNL     1      20.183  -1.470 -10.951  0.00  0.00    +0.043 A 
ATOM     11 BR   UNL     1      18.362  -2.002 -11.243  0.00  0.00    -0.048 Br
BRANCH   5  13
ATOM     12  C   UNL     1      18.465   0.933  -8.915  0.00  0.00    +0.200 C 
ATOM     13  S   UNL     1      19.344   1.138 -10.449  0.00  0.00    -0.005 S 
ATOM     14  O   UNL     1      18.382   1.103 -11.603  0.00  0.00    -0.170 OA
ATOM     15  O   UNL     1      20.021   2.480 -10.438  0.00  0.00    -0.170 OA
ENDBRANCH   5  13
ENDBRANCH   1   7
BRANCH   3  16
ATOM     16  C   UNL     1      26.067   0.251  -8.624  0.00  0.00    +0.076 A 
ATOM     17  C   UNL     1      26.421  -0.657  -7.613  0.00  0.00    +0.027 A 
ATOM     18  C   UNL     1      27.722  -0.681  -7.106  0.00  0.00    +0.002 A 
ATOM     19  C   UNL     1      28.684   0.195  -7.608  0.00  0.00    +0.004 A 
ATOM     20  C   UNL     1      28.353   1.085  -8.633  0.00  0.00    +0.048 A 
ATOM     21  C   UNL     1      27.054   1.101  -9.170  0.00  0.00    +0.150 A 
BRANCH  21  22
ATOM     22  O   UNL     1      26.714   1.965 -10.222  0.00  0.00    -0.454 OA
BRANCH  22  23
ATOM     23  C   UNL     1      26.572   1.598 -11.568  0.00  0.00    +0.131 A 
ATOM     24  C   UNL     1      27.593   0.932 -12.272  0.00  0.00    +0.046 A 
ATOM     25  C   UNL     1      27.403   0.567 -13.608  0.00  0.00    +0.006 A 
ATOM     26  C   UNL     1      26.192   0.851 -14.247  0.00  0.00    +0.038 A 
ATOM     27  C   UNL     1      25.168   1.495 -13.547  0.00  0.00    +0.127 A 
ATOM     28  F   UNL     1      23.990   1.761 -14.164  0.00  0.00    -0.205 F 
ATOM     29  C   UNL     1      25.356   1.860 -12.211  0.00  0.00    +0.084 A 
ENDBRANCH  22  23
ENDBRANCH  21  22
ENDBRANCH   3  16
TORSDOF 5
