REMARK  Name = 
REMARK  8 active torsions:
REMARK  status: ('A' for Active; 'I' for Inactive)
REMARK    1  A    between atoms: C_1  and  C_2
REMARK    2  A    between atoms: C_4  and  S_5
REMARK    3  A    between atoms: S_5  and  C_6
REMARK    4  A    between atoms: C_9  and  C_10
REMARK    5  A    between atoms: C_11  and  S_12
REMARK    6  A    between atoms: S_12  and  N_15
REMARK    7  A    between atoms: N_15  and  C_16
REMARK    8  A    between atoms: C_18  and  C_19
REMARK                            x       y       z     vdW  Elec       q    Type
REMARK                         _______ _______ _______ _____ _____    ______ ____
ROOT
ATOM      1  S   UNL     1      25.340   0.921 -12.883  0.00  0.00    +0.059 S 
ATOM      2  O   UNL     1      24.431   2.027 -13.339  0.00  0.00    -0.153 OA
ATOM      3  O   UNL     1      26.304   0.587 -13.989  0.00  0.00    -0.153 OA
ENDROOT
BRANCH   1  10
ATOM      4  C   UNL     1      26.418   4.649  -9.352  0.00  0.00    +0.044 C 
ATOM      5  C   UNL     1      26.643   3.242  -9.826  0.00  0.00    -0.047 A 
ATOM      6  C   UNL     1      27.407   2.367  -9.054  0.00  0.00    +0.030 A 
ATOM      7  C   UNL     1      27.634   1.048  -9.470  0.00  0.00    +0.093 A 
ATOM      8  C   UNL     1      27.098   0.599 -10.709  0.00  0.00    +0.001 A 
ATOM      9  C   UNL     1      27.430  -0.777 -11.240  0.00  0.00    +0.048 C 
ATOM     10  C   UNL     1      26.226   1.459 -11.434  0.00  0.00    +0.110 A 
ATOM     11  C   UNL     1      26.050   2.782 -11.004  0.00  0.00    +0.032 A 
BRANCH   7  12
ATOM     12  S   UNL     1      28.598   0.011  -8.398  0.00  0.00    -0.006 S 
ATOM     13  C   UNL     1      27.797  -0.133  -6.814  0.00  0.00    +0.200 C 
ATOM     14  O   UNL     1      29.985   0.565  -8.227  0.00  0.00    -0.170 OA
ATOM     15  O   UNL     1      28.718  -1.362  -9.001  0.00  0.00    -0.170 OA
ENDBRANCH   7  12
ENDBRANCH   1  10
BRANCH   1  16
ATOM     16  N   UNL     1      24.388  -0.502 -12.576  0.00  0.00    -0.186 NA
ATOM     17  H   UNL     1      23.951  -0.784 -13.483  0.00  0.00    +0.148 HD
BRANCH  16  18
ATOM     18  C   UNL     1      23.370  -0.188 -11.565  0.00  0.00    +0.085 C 
ATOM     19  C   UNL     1      23.687  -0.821 -10.213  0.00  0.00    +0.030 C 
ATOM     20  C   UNL     1      22.550  -1.376 -11.061  0.00  0.00    +0.039 C 
BRANCH  20  21
ATOM     21  C   UNL     1      21.124  -1.062 -10.647  0.00  0.00    -0.040 A 
ATOM     22  C   UNL     1      20.139  -2.049 -10.414  0.00  0.00    +0.004 A 
ATOM     23  C   UNL     1      18.854  -1.682 -10.004  0.00  0.00    +0.003 A 
ATOM     24  C   UNL     1      18.531  -0.337  -9.821  0.00  0.00    +0.038 A 
ATOM     25  C   UNL     1      19.494   0.648 -10.049  0.00  0.00    +0.124 A 
ATOM     26  F   UNL     1      19.182   1.955  -9.866  0.00  0.00    -0.205 F 
ATOM     27  C   UNL     1      20.781   0.288 -10.459  0.00  0.00    +0.042 A 
ENDBRANCH  20  21
ENDBRANCH  16  18
ENDBRANCH   1  16
TORSDOF 5
