REMARK  Name = 
REMARK  7 active torsions:
REMARK  status: ('A' for Active; 'I' for Inactive)
REMARK    1  A    between atoms: C_1  and  N_2
REMARK    2  A    between atoms: N_2  and  C_3
REMARK    3  A    between atoms: N_2  and  S_17
REMARK    4  A    between atoms: C_3  and  C_4
REMARK    5  A    between atoms: C_3  and  C_10
REMARK    6  A    between atoms: S_17  and  C_20
REMARK    7  A    between atoms: C_25  and  C_26
REMARK                            x       y       z     vdW  Elec       q    Type
REMARK                         _______ _______ _______ _____ _____    ______ ____
ROOT
ATOM      1  C   UNL     1      23.683  -0.154  -8.433  0.00  0.00    +0.132 C 
ATOM      2  N   UNL     1      23.909   0.169  -9.851  0.00  0.00    -0.168 NA
ENDROOT
BRANCH   2   3
ATOM      3  S   UNL     1      23.205  -1.085 -10.853  0.00  0.00    +0.062 S 
ATOM      4  O   UNL     1      23.630  -2.448 -10.379  0.00  0.00    -0.153 OA
ATOM      5  O   UNL     1      23.613  -0.915 -12.288  0.00  0.00    -0.153 OA
BRANCH   3   6
ATOM      6  C   UNL     1      21.447  -0.966 -10.787  0.00  0.00    +0.109 A 
ATOM      7  C   UNL     1      20.641  -2.018 -11.245  0.00  0.00    +0.067 A 
ATOM      8  C   UNL     1      19.247  -1.919 -11.169  0.00  0.00    +0.126 A 
ATOM      9  F   UNL     1      18.471  -2.938 -11.612  0.00  0.00    -0.205 F 
ATOM     10  C   UNL     1      18.655  -0.771 -10.634  0.00  0.00    +0.057 A 
ATOM     11  C   UNL     1      19.456   0.280 -10.170  0.00  0.00    +0.056 A 
ATOM     12  C   UNL     1      20.851   0.180 -10.245  0.00  0.00    +0.047 A 
BRANCH  11  13
ATOM     13  C   UNL     1      18.846   1.460  -9.612  0.00  0.00    +0.099 C 
ATOM     14  N   UNL     1      18.356   2.407  -9.165  0.00  0.00    -0.191 NA
ENDBRANCH  11  13
ENDBRANCH   3   6
ENDBRANCH   2   3
BRANCH   2  15
ATOM     15  C   UNL     1      25.334   0.507 -10.142  0.00  0.00    +0.140 C 
BRANCH  15  16
ATOM     16  C   UNL     1      26.351  -0.262  -9.280  0.00  0.00    -0.010 A 
ATOM     17  C   UNL     1      26.382  -1.665  -9.433  0.00  0.00    +0.006 A 
ATOM     18  C   UNL     1      27.281  -2.455  -8.713  0.00  0.00    +0.000 A 
ATOM     19  C   UNL     1      28.166  -1.864  -7.817  0.00  0.00    +0.001 A 
ATOM     20  C   UNL     1      28.150  -0.484  -7.633  0.00  0.00    +0.015 A 
ATOM     21  C   UNL     1      27.257   0.328  -8.345  0.00  0.00    +0.023 A 
ATOM     22 BR   UNL     1      27.365   2.202  -7.935  0.00  0.00    -0.050 Br
ENDBRANCH  15  16
BRANCH  15  23
ATOM     23  C   UNL     1      25.645   0.563 -11.632  0.00  0.00    -0.024 A 
ATOM     24  C   UNL     1      26.735  -0.177 -12.135  0.00  0.00    +0.005 A 
ATOM     25  C   UNL     1      27.088  -0.101 -13.486  0.00  0.00    +0.000 A 
ATOM     26  C   UNL     1      26.382   0.740 -14.347  0.00  0.00    +0.000 A 
ATOM     27  C   UNL     1      25.333   1.519 -13.855  0.00  0.00    +0.000 A 
ATOM     28  C   UNL     1      24.977   1.447 -12.506  0.00  0.00    +0.005 A 
ENDBRANCH  15  23
ENDBRANCH   2  15
TORSDOF 6
