REMARK  Name = 
REMARK  9 active torsions:
REMARK  status: ('A' for Active; 'I' for Inactive)
REMARK    1  A    between atoms: C_1  and  C_2
REMARK    2  A    between atoms: C_2  and  N_3
REMARK    3  A    between atoms: C_2  and  C_24
REMARK    4  A    between atoms: N_3  and  C_4
REMARK    5  A    between atoms: C_4  and  C_5
REMARK    6  A    between atoms: C_5  and  N_6
REMARK    7  A    between atoms: C_7  and  C_9
REMARK    8  A    between atoms: C_14  and  S_15
REMARK    9  A    between atoms: S_15  and  C_16
REMARK                            x       y       z     vdW  Elec       q    Type
REMARK                         _______ _______ _______ _____ _____    ______ ____
ROOT
ATOM      1  C   UNL     1      25.949  -0.832  -9.975  0.00  0.00    +0.126 C 
ENDROOT
BRANCH   1   2
ATOM      2  C   UNL     1      26.847   0.001  -9.012  0.00  0.00    +0.035 C 
ATOM      3  C   UNL     1      26.986  -0.595  -7.592  0.00  0.00    +0.024 C 
ATOM      4  C   UNL     1      28.288  -0.026  -7.047  0.00  0.00    +0.002 C 
ATOM      5  C   UNL     1      29.177   0.227  -8.264  0.00  0.00    +0.002 C 
ATOM      6  C   UNL     1      28.315  -0.045  -9.496  0.00  0.00    +0.024 C 
BRANCH   2   7
ATOM      7  N   UNL     1      26.381   1.426  -9.031  0.00  0.00    -0.303 NA
ATOM      8  H   UNL     1      25.336   1.458  -9.104  0.00  0.00    +0.123 HD
BRANCH   7  10
ATOM      9  C   UNL     1      26.383   3.791  -9.900  0.00  0.00    +0.029 C 
ATOM     10  C   UNL     1      26.899   2.355 -10.068  0.00  0.00    +0.081 C 
BRANCH  10  11
ATOM     11  C   UNL     1      26.481   1.857 -11.440  0.00  0.00    -0.031 A 
ATOM     12  C   UNL     1      27.373   1.103 -12.226  0.00  0.00    +0.005 A 
ATOM     13  C   UNL     1      26.994   0.663 -13.498  0.00  0.00    +0.000 A 
ATOM     14  C   UNL     1      25.729   0.976 -14.001  0.00  0.00    +0.000 A 
ATOM     15  C   UNL     1      24.839   1.733 -13.235  0.00  0.00    +0.000 A 
ATOM     16  C   UNL     1      25.213   2.176 -11.962  0.00  0.00    +0.005 A 
ENDBRANCH  10  11
ENDBRANCH   7  10
ENDBRANCH   2   7
ENDBRANCH   1   2
BRANCH   1  17
ATOM     17  N   UNL     1      24.523  -0.505  -9.875  0.00  0.00    -0.310 N 
ATOM     18  C   UNL     1      23.620  -0.640 -10.987  0.00  0.00    +0.244 C 
ATOM     19  O   UNL     1      24.079  -0.890 -12.137  0.00  0.00    -0.270 OA
ATOM     20  H   UNL     1      24.163  -0.159  -8.960  0.00  0.00    +0.149 HD
BRANCH  18  21
ATOM     21  C   UNL     1      22.159  -0.462 -10.813  0.00  0.00    +0.039 A 
ATOM     22  C   UNL     1      21.615   0.789 -10.473  0.00  0.00    +0.016 A 
ATOM     23  C   UNL     1      20.237   0.939 -10.311  0.00  0.00    +0.041 A 
ATOM     24  C   UNL     1      19.383  -0.153 -10.478  0.00  0.00    +0.148 A 
ATOM     25  F   UNL     1      18.046   0.018 -10.323  0.00  0.00    -0.203 F 
ATOM     26  C   UNL     1      19.909  -1.413 -10.803  0.00  0.00    +0.124 A 
ATOM     27  C   UNL     1      21.295  -1.561 -10.969  0.00  0.00    +0.043 A 
BRANCH  26  28
ATOM     28  S   UNL     1      18.835  -2.794 -11.023  0.00  0.00    -0.003 S 
ATOM     29  C   UNL     1      17.255  -2.226 -11.610  0.00  0.00    +0.200 C 
ATOM     30  O   UNL     1      18.663  -3.515  -9.715  0.00  0.00    -0.170 OA
ATOM     31  O   UNL     1      19.416  -3.749 -12.028  0.00  0.00    -0.170 OA
ENDBRANCH  26  28
ENDBRANCH  18  21
ENDBRANCH   1  17
TORSDOF 7
