REMARK  Name = 
REMARK  7 active torsions:
REMARK  status: ('A' for Active; 'I' for Inactive)
REMARK    1  A    between atoms: C_1  and  S_2
REMARK    2  A    between atoms: S_2  and  C_5
REMARK    3  A    between atoms: C_10  and  S_11
REMARK    4  A    between atoms: S_11  and  N_14
REMARK    5  A    between atoms: N_14  and  C_15
REMARK    6  A    between atoms: C_15  and  C_16
REMARK    7  A    between atoms: C_15  and  C_23
REMARK                            x       y       z     vdW  Elec       q    Type
REMARK                         _______ _______ _______ _____ _____    ______ ____
ROOT
ATOM      1  N   UNL     1      23.675   0.218  -9.987  0.00  0.00    -0.178 NA
ATOM      2  H   UNL     1      23.507   0.345  -8.963  0.00  0.00    +0.149 HD
ENDROOT
BRANCH   1   3
ATOM      3  S   UNL     1      22.445  -0.876 -10.568  0.00  0.00    +0.061 S 
ATOM      4  O   UNL     1      22.468  -2.095  -9.695  0.00  0.00    -0.153 OA
ATOM      5  O   UNL     1      22.798  -1.296 -11.967  0.00  0.00    -0.153 OA
BRANCH   3  11
ATOM      6  C   UNL     1      19.599  -0.722 -10.818  0.00  0.00    +0.114 A 
ATOM      7  C   UNL     1      18.424   0.055 -10.811  0.00  0.00    +0.029 A 
ATOM      8  C   UNL     1      18.473   1.436 -10.634  0.00  0.00    +0.002 A 
ATOM      9  C   UNL     1      19.696   2.074 -10.475  0.00  0.00    +0.002 A 
ATOM     10  C   UNL     1      20.874   1.330 -10.474  0.00  0.00    +0.030 A 
ATOM     11  C   UNL     1      20.855  -0.070 -10.620  0.00  0.00    +0.130 A 
BRANCH   6  13
ATOM     12  C   UNL     1      17.877  -2.795 -11.967  0.00  0.00    +0.200 C 
ATOM     13  S   UNL     1      19.413  -2.463 -11.123  0.00  0.00    -0.004 S 
ATOM     14  O   UNL     1      20.584  -2.989 -11.901  0.00  0.00    -0.170 OA
ATOM     15  O   UNL     1      19.364  -3.205  -9.817  0.00  0.00    -0.170 OA
ENDBRANCH   6  13
ENDBRANCH   3  11
ENDBRANCH   1   3
BRANCH   1  16
ATOM     16  C   UNL     1      25.027  -0.336 -10.187  0.00  0.00    +0.143 C 
BRANCH  16  17
ATOM     17  C   UNL     1      25.604   0.101 -11.516  0.00  0.00    -0.024 A 
ATOM     18  C   UNL     1      26.875  -0.340 -11.930  0.00  0.00    +0.008 A 
ATOM     19  C   UNL     1      27.395   0.062 -13.163  0.00  0.00    +0.038 A 
ATOM     20  C   UNL     1      26.652   0.901 -13.998  0.00  0.00    +0.123 A 
ATOM     21  F   UNL     1      27.158   1.290 -15.194  0.00  0.00    -0.205 F 
ATOM     22  C   UNL     1      25.384   1.335 -13.601  0.00  0.00    +0.038 A 
ATOM     23  C   UNL     1      24.859   0.936 -12.368  0.00  0.00    +0.008 A 
ENDBRANCH  16  17
BRANCH  16  24
ATOM     24  C   UNL     1      25.950   0.107  -9.085  0.00  0.00    +0.013 A 
ATOM     25  C   UNL     1      26.569   1.348  -8.966  0.00  0.00    +0.013 A 
ATOM     26  C   UNL     1      27.432   1.431  -7.867  0.00  0.00    +0.008 A 
ATOM     27  C   UNL     1      27.507   0.260  -7.126  0.00  0.00    +0.045 A 
ATOM     28  S   UNL     1      26.501  -0.882  -7.840  0.00  0.00    -0.100 S 
ENDBRANCH  16  24
ENDBRANCH   1  16
TORSDOF 6
