REMARK  Name = 
REMARK  6 active torsions:
REMARK  status: ('A' for Active; 'I' for Inactive)
REMARK    1  A    between atoms: C_1  and  S_2
REMARK    2  A    between atoms: S_2  and  C_5
REMARK    3  A    between atoms: C_8  and  C_9
REMARK    4  A    between atoms: N_11  and  C_12
REMARK    5  A    between atoms: C_15  and  C_16
REMARK    6  A    between atoms: C_25  and  N_26
REMARK                            x       y       z     vdW  Elec       q    Type
REMARK                         _______ _______ _______ _____ _____    ______ ____
ROOT
ATOM      1  C   UNL     1      24.257   0.185 -11.354  0.00  0.00    +0.244 C 
ATOM      2  O   UNL     1      25.063   0.452 -10.422  0.00  0.00    -0.270 OA
ATOM      3  N   UNL     1      24.646   0.419 -12.718  0.00  0.00    -0.308 N 
ATOM      4  H   UNL     1      23.898   0.450 -13.445  0.00  0.00    +0.149 HD
ENDROOT
BRANCH   1   8
ATOM      5  C   UNL     1      20.355  -1.371 -10.397  0.00  0.00    +0.118 A 
ATOM      6  C   UNL     1      21.445  -2.234 -10.569  0.00  0.00    +0.030 A 
ATOM      7  C   UNL     1      22.712  -1.736 -10.876  0.00  0.00    +0.015 A 
ATOM      8  C   UNL     1      22.916  -0.356 -11.026  0.00  0.00    +0.039 A 
ATOM      9  C   UNL     1      21.833   0.515 -10.828  0.00  0.00    +0.047 A 
ATOM     10  C   UNL     1      20.556   0.027 -10.501  0.00  0.00    +0.152 A 
BRANCH   5  12
ATOM     11  C   UNL     1      17.787  -2.022 -11.594  0.00  0.00    +0.200 C 
ATOM     12  S   UNL     1      18.764  -2.091 -10.107  0.00  0.00    -0.004 S 
ATOM     13  O   UNL     1      18.899  -3.515  -9.645  0.00  0.00    -0.170 OA
ATOM     14  O   UNL     1      18.058  -1.316  -9.028  0.00  0.00    -0.170 OA
ENDBRANCH   5  12
BRANCH  10  15
ATOM     15  N   UNL     1      19.492   0.963 -10.271  0.00  0.00    +0.058 N 
ATOM     16  O   UNL     1      19.053   1.653 -11.214  0.00  0.00    -0.126 OA
ATOM     17  O   UNL     1      19.127   1.288  -8.986  0.00  0.00    -0.126 OA
ENDBRANCH  10  15
ENDBRANCH   1   8
BRANCH   3  18
ATOM     18  C   UNL     1      26.036   0.711 -13.089  0.00  0.00    +0.074 C 
ATOM     19  C   UNL     1      26.436   2.102 -12.601  0.00  0.00    +0.023 C 
ATOM     20  C   UNL     1      27.002   1.894 -11.209  0.00  0.00    +0.010 C 
ATOM     21  C   UNL     1      27.676   0.521 -11.253  0.00  0.00    +0.021 C 
ATOM     22  C   UNL     1      27.016  -0.255 -12.406  0.00  0.00    +0.030 C 
BRANCH  21  23
ATOM     23  C   UNL     1      27.606  -0.210  -9.923  0.00  0.00    -0.042 A 
ATOM     24  C   UNL     1      27.606  -1.615  -9.895  0.00  0.00    +0.004 A 
ATOM     25  C   UNL     1      27.542  -2.299  -8.676  0.00  0.00    +0.003 A 
ATOM     26  C   UNL     1      27.479  -1.589  -7.475  0.00  0.00    +0.038 A 
ATOM     27  C   UNL     1      27.478  -0.192  -7.490  0.00  0.00    +0.124 A 
ATOM     28  F   UNL     1      27.417   0.497  -6.324  0.00  0.00    -0.205 F 
ATOM     29  C   UNL     1      27.541   0.497  -8.706  0.00  0.00    +0.042 A 
ENDBRANCH  21  23
ENDBRANCH   3  18
TORSDOF 5
