REMARK  Name = 
REMARK  7 active torsions:
REMARK  status: ('A' for Active; 'I' for Inactive)
REMARK    1  A    between atoms: C_1  and  C_2
REMARK    2  A    between atoms: C_2  and  C_3
REMARK    3  A    between atoms: C_6  and  C_7
REMARK    4  A    between atoms: C_7  and  N_8
REMARK    5  A    between atoms: N_8  and  S_9
REMARK    6  A    between atoms: S_9  and  C_12
REMARK    7  A    between atoms: C_18  and  C_19
REMARK                            x       y       z     vdW  Elec       q    Type
REMARK                         _______ _______ _______ _____ _____    ______ ____
ROOT
ATOM      1  N   UNL     1      23.294  -1.830  -9.679  0.00  0.00    -0.189 NA
ATOM      2  H   UNL     1      22.559  -2.214  -9.037  0.00  0.00    +0.148 HD
ENDROOT
BRANCH   1   3
ATOM      3  S   UNL     1      22.472  -0.856 -10.860  0.00  0.00    +0.060 S 
ATOM      4  O   UNL     1      23.182  -0.972 -12.180  0.00  0.00    -0.153 OA
ATOM      5  O   UNL     1      22.526   0.579 -10.417  0.00  0.00    -0.153 OA
BRANCH   3   6
ATOM      6  C   UNL     1      20.778  -1.375 -10.948  0.00  0.00    +0.123 A 
ATOM      7  C   UNL     1      20.530  -2.738 -11.213  0.00  0.00    +0.032 A 
ATOM      8  C   UNL     1      19.229  -3.206 -11.390  0.00  0.00    +0.040 A 
ATOM      9  C   UNL     1      18.155  -2.320 -11.301  0.00  0.00    +0.125 A 
ATOM     10  F   UNL     1      16.889  -2.774 -11.519  0.00  0.00    -0.205 F 
ATOM     11  C   UNL     1      18.381  -0.964 -11.032  0.00  0.00    +0.059 A 
ATOM     12  C   UNL     1      19.685  -0.478 -10.865  0.00  0.00    +0.081 A 
BRANCH  12  13
ATOM     13  C   UNL     1      19.859   0.942 -10.649  0.00  0.00    +0.101 C 
ATOM     14  N   UNL     1      19.993   2.085 -10.475  0.00  0.00    -0.191 NA
ENDBRANCH  12  13
ENDBRANCH   3   6
ENDBRANCH   1   3
BRANCH   1  15
ATOM     15  C   UNL     1      24.211  -1.013  -8.884  0.00  0.00    +0.114 C 
BRANCH  15  21
ATOM     16  C   UNL     1      29.069   0.628  -8.577  0.00  0.00    +0.016 C 
ATOM     17  C   UNL     1      27.572   0.941  -8.328  0.00  0.00    -0.010 C 
ATOM     18  C   UNL     1      27.479   2.238  -7.487  0.00  0.00    +0.016 C 
ATOM     19  C   UNL     1      26.928  -0.197  -7.486  0.00  0.00    +0.011 C 
ATOM     20  C   UNL     1      26.665  -1.450  -8.318  0.00  0.00    +0.010 C 
ATOM     21  C   UNL     1      25.652  -1.161  -9.433  0.00  0.00    +0.035 C 
ATOM     22  C   UNL     1      26.038   0.073 -10.235  0.00  0.00    -0.039 A 
ATOM     23  C   UNL     1      25.484   0.229 -11.527  0.00  0.00    +0.004 A 
ATOM     24  C   UNL     1      25.757   1.365 -12.280  0.00  0.00    +0.000 A 
ATOM     25  C   UNL     1      26.594   2.358 -11.770  0.00  0.00    +0.000 A 
ATOM     26  C   UNL     1      27.148   2.230 -10.492  0.00  0.00    +0.004 A 
ATOM     27  C   UNL     1      26.867   1.103  -9.689  0.00  0.00    -0.038 A 
ENDBRANCH  15  21
ENDBRANCH   1  15
TORSDOF 5
