REMARK  Name = 
REMARK  8 active torsions:
REMARK  status: ('A' for Active; 'I' for Inactive)
REMARK    1  A    between atoms: C_1  and  C_2
REMARK    2  A    between atoms: C_4  and  C_5
REMARK    3  A    between atoms: N_7  and  S_8
REMARK    4  A    between atoms: S_8  and  N_11
REMARK    5  A    between atoms: N_11  and  C_12
REMARK    6  A    between atoms: C_12  and  C_13
REMARK    7  A    between atoms: C_18  and  O_19
REMARK    8  A    between atoms: O_19  and  C_20
REMARK                            x       y       z     vdW  Elec       q    Type
REMARK                         _______ _______ _______ _____ _____    ______ ____
ROOT
ATOM      1  C   UNL     1      24.392  -0.245  -8.961  0.00  0.00    +0.145 C 
ENDROOT
BRANCH   1   2
ATOM      2  C   UNL     1      25.841  -0.261  -8.541  0.00  0.00    +0.010 A 
ATOM      3  C   UNL     1      26.273  -1.219  -7.608  0.00  0.00    +0.008 A 
ATOM      4  C   UNL     1      27.602  -1.239  -7.180  0.00  0.00    +0.001 A 
ATOM      5  C   UNL     1      28.513  -0.306  -7.677  0.00  0.00    +0.004 A 
ATOM      6  C   UNL     1      28.101   0.642  -8.616  0.00  0.00    +0.046 A 
ATOM      7  C   UNL     1      26.777   0.659  -9.072  0.00  0.00    +0.133 A 
BRANCH   7   8
ATOM      8  O   UNL     1      26.408   1.611 -10.028  0.00  0.00    -0.456 OA
BRANCH   8   9
ATOM      9  C   UNL     1      26.377   1.361 -11.408  0.00  0.00    +0.131 A 
ATOM     10  C   UNL     1      27.481   0.817 -12.092  0.00  0.00    +0.046 A 
ATOM     11  C   UNL     1      27.404   0.569 -13.465  0.00  0.00    +0.006 A 
ATOM     12  C   UNL     1      26.234   0.870 -14.168  0.00  0.00    +0.038 A 
ATOM     13  C   UNL     1      25.141   1.427 -13.498  0.00  0.00    +0.127 A 
ATOM     14  F   UNL     1      24.008   1.723 -14.180  0.00  0.00    -0.205 F 
ATOM     15  C   UNL     1      25.215   1.677 -12.124  0.00  0.00    +0.084 A 
ENDBRANCH   8   9
ENDBRANCH   7   8
ENDBRANCH   1   2
BRANCH   1  16
ATOM     16  N   UNL     1      23.961  -1.599  -9.311  0.00  0.00    -0.175 NA
ATOM     17  H   UNL     1      23.472  -2.015  -8.487  0.00  0.00    +0.149 HD
BRANCH  16  18
ATOM     18  S   UNL     1      22.857  -1.583 -10.661  0.00  0.00    +0.097 S 
ATOM     19  O   UNL     1      23.326  -0.627 -11.725  0.00  0.00    -0.141 OA
ATOM     20  O   UNL     1      22.817  -2.962 -11.256  0.00  0.00    -0.141 OA
BRANCH  18  27
ATOM     21  C   UNL     1      19.004   1.287 -11.502  0.00  0.00    +0.009 C 
ATOM     22  C   UNL     1      19.565   0.766 -10.170  0.00  0.00    +0.002 C 
ATOM     23  C   UNL     1      18.684  -0.352  -9.571  0.00  0.00    +0.009 C 
ATOM     24  C   UNL     1      18.857  -1.730 -10.259  0.00  0.00    +0.002 C 
ATOM     25  C   UNL     1      17.725  -2.029 -11.250  0.00  0.00    +0.009 C 
ATOM     26  C   UNL     1      20.236  -1.876 -10.931  0.00  0.00    +0.113 C 
ATOM     27  N   UNL     1      21.242  -1.127 -10.167  0.00  0.00    -0.166 NA
ATOM     28  C   UNL     1      21.053   0.332 -10.305  0.00  0.00    +0.113 C 
ENDBRANCH  18  27
ENDBRANCH  16  18
ENDBRANCH   1  16
TORSDOF 6
