REMARK  Name = 
REMARK  10 active torsions:
REMARK  status: ('A' for Active; 'I' for Inactive)
REMARK    1  A    between atoms: C_1  and  C_2
REMARK    2  A    between atoms: C_2  and  N_3
REMARK    3  A    between atoms: C_2  and  C_24
REMARK    4  A    between atoms: N_3  and  C_4
REMARK    5  A    between atoms: C_4  and  C_5
REMARK    6  A    between atoms: C_5  and  N_6
REMARK    7  A    between atoms: N_6  and  S_7
REMARK    8  A    between atoms: S_7  and  C_10
REMARK    9  A    between atoms: C_10  and  C_11
REMARK   10  A    between atoms: C_17  and  C_18
REMARK                            x       y       z     vdW  Elec       q    Type
REMARK                         _______ _______ _______ _____ _____    ______ ____
ROOT
ATOM      1  C   UNL     1      24.153   0.425 -12.009  0.00  0.00    +0.127 C 
ENDROOT
BRANCH   1   2
ATOM      2  C   UNL     1      25.604   0.985 -11.885  0.00  0.00    +0.034 C 
ATOM      3  C   UNL     1      25.901   2.052 -12.956  0.00  0.00    +0.023 C 
ATOM      4  C   UNL     1      26.495   1.324 -14.155  0.00  0.00    +0.002 C 
ATOM      5  C   UNL     1      27.008  -0.023 -13.654  0.00  0.00    +0.002 C 
ATOM      6  C   UNL     1      26.631  -0.132 -12.179  0.00  0.00    +0.023 C 
BRANCH   2   7
ATOM      7  N   UNL     1      25.829   1.513 -10.511  0.00  0.00    -0.303 NA
ATOM      8  H   UNL     1      25.179   1.031  -9.846  0.00  0.00    +0.123 HD
BRANCH   7  10
ATOM      9  C   UNL     1      27.618   2.766  -9.377  0.00  0.00    +0.029 C 
ATOM     10  C   UNL     1      27.227   1.431 -10.017  0.00  0.00    +0.081 C 
BRANCH  10  11
ATOM     11  C   UNL     1      27.405   0.292  -9.022  0.00  0.00    -0.031 A 
ATOM     12  C   UNL     1      27.240  -1.049  -9.419  0.00  0.00    +0.005 A 
ATOM     13  C   UNL     1      27.416  -2.086  -8.498  0.00  0.00    +0.000 A 
ATOM     14  C   UNL     1      27.761  -1.799  -7.175  0.00  0.00    +0.000 A 
ATOM     15  C   UNL     1      27.934  -0.473  -6.772  0.00  0.00    +0.000 A 
ATOM     16  C   UNL     1      27.760   0.568  -7.688  0.00  0.00    +0.005 A 
ENDBRANCH  10  11
ENDBRANCH   7  10
ENDBRANCH   2   7
ENDBRANCH   1   2
BRANCH   1  17
ATOM     17  N   UNL     1      24.008  -0.879 -11.343  0.00  0.00    -0.192 NA
ATOM     18  H   UNL     1      24.961  -1.289 -11.212  0.00  0.00    +0.148 HD
BRANCH  17  19
ATOM     19  S   UNL     1      23.327  -0.680  -9.758  0.00  0.00    +0.034 S 
ATOM     20  O   UNL     1      24.291   0.059  -8.871  0.00  0.00    -0.158 OA
ATOM     21  O   UNL     1      23.053  -2.033  -9.165  0.00  0.00    -0.158 OA
BRANCH  19  22
ATOM     22  C   UNL     1      21.786   0.218  -9.893  0.00  0.00    +0.221 C 
BRANCH  22  23
ATOM     23  C   UNL     1      20.709  -0.659 -10.485  0.00  0.00    -0.007 A 
ATOM     24  C   UNL     1      21.073  -1.884 -11.070  0.00  0.00    +0.009 A 
ATOM     25  C   UNL     1      20.100  -2.731 -11.605  0.00  0.00    +0.039 A 
ATOM     26  C   UNL     1      18.752  -2.371 -11.553  0.00  0.00    +0.125 A 
ATOM     27  F   UNL     1      17.811  -3.197 -12.072  0.00  0.00    -0.205 F 
ATOM     28  C   UNL     1      18.372  -1.164 -10.961  0.00  0.00    +0.057 A 
ATOM     29  C   UNL     1      19.340  -0.305 -10.421  0.00  0.00    +0.059 A 
BRANCH  29  30
ATOM     30  C   UNL     1      18.904   0.926  -9.804  0.00  0.00    +0.100 C 
ATOM     31  N   UNL     1      18.555   1.912  -9.310  0.00  0.00    -0.191 NA
ENDBRANCH  29  30
ENDBRANCH  22  23
ENDBRANCH  19  22
ENDBRANCH  17  19
ENDBRANCH   1  17
TORSDOF 9
