REMARK  Name = 
REMARK  5 active torsions:
REMARK  status: ('A' for Active; 'I' for Inactive)
REMARK    1  A    between atoms: C_2  and  C_3
REMARK    2  A    between atoms: C_9  and  C_10
REMARK    3  A    between atoms: C_10  and  S_11
REMARK    4  A    between atoms: S_11  and  N_14
REMARK    5  A    between atoms: N_14  and  C_15
REMARK                            x       y       z     vdW  Elec       q    Type
REMARK                         _______ _______ _______ _____ _____    ______ ____
ROOT
ATOM      1  S   UNL     1      23.398  -0.821 -10.247  0.00  0.00    +0.034 S 
ATOM      2  O   UNL     1      23.260  -1.348 -11.649  0.00  0.00    -0.158 OA
ATOM      3  O   UNL     1      23.606  -1.980  -9.313  0.00  0.00    -0.158 OA
ENDROOT
BRANCH   1   4
ATOM      4  N   UNL     1      24.785   0.228 -10.148  0.00  0.00    -0.191 NA
ATOM      5  H   UNL     1      24.441   1.188  -9.916  0.00  0.00    +0.148 HD
BRANCH   4   6
ATOM      6  C   UNL     1      25.582   0.223 -11.394  0.00  0.00    +0.082 C 
ATOM      7  C   UNL     1      24.842   0.971 -12.535  0.00  0.00    +0.021 C 
ATOM      8  C   UNL     1      25.669   0.984 -13.821  0.00  0.00    +0.002 C 
ATOM      9  C   UNL     1      27.036   1.625 -13.580  0.00  0.00    +0.001 C 
ATOM     10  C   UNL     1      27.796   0.887 -12.470  0.00  0.00    +0.008 C 
ATOM     11  C   UNL     1      27.000   0.833 -11.132  0.00  0.00    -0.012 C 
ATOM     12  C   UNL     1      27.787  -0.038 -10.116  0.00  0.00    +0.008 C 
ATOM     13  C   UNL     1      28.425   0.919  -9.127  0.00  0.00    +0.001 C 
ATOM     14  C   UNL     1      27.486   2.104  -9.069  0.00  0.00    +0.001 C 
ATOM     15  C   UNL     1      26.928   2.243 -10.475  0.00  0.00    +0.008 C 
ENDBRANCH   4   6
ENDBRANCH   1   4
BRANCH   1  16
ATOM     16  C   UNL     1      21.905   0.047  -9.789  0.00  0.00    +0.221 C 
BRANCH  16  23
ATOM     17  C   UNL     1      19.445  -0.029 -10.490  0.00  0.00    +0.059 A 
ATOM     18  C   UNL     1      18.337  -0.757 -10.948  0.00  0.00    +0.057 A 
ATOM     19  C   UNL     1      18.451  -2.122 -11.220  0.00  0.00    +0.125 A 
ATOM     20  F   UNL     1      17.375  -2.818 -11.661  0.00  0.00    -0.205 F 
ATOM     21  C   UNL     1      19.673  -2.772 -11.033  0.00  0.00    +0.039 A 
ATOM     22  C   UNL     1      20.784  -2.059 -10.577  0.00  0.00    +0.009 A 
ATOM     23  C   UNL     1      20.689  -0.681 -10.310  0.00  0.00    -0.007 A 
BRANCH  17  25
ATOM     24  N   UNL     1      19.144   2.503  -9.983  0.00  0.00    -0.191 NA
ATOM     25  C   UNL     1      19.279   1.376 -10.209  0.00  0.00    +0.100 C 
ENDBRANCH  17  25
ENDBRANCH  16  23
ENDBRANCH   1  16
TORSDOF 5
