REMARK  Name = 
REMARK  12 active torsions:
REMARK  status: ('A' for Active; 'I' for Inactive)
REMARK    1  A    between atoms: C_1  and  C_2
REMARK    2  A    between atoms: C_4  and  S_5
REMARK    3  A    between atoms: S_5  and  C_6
REMARK    4  A    between atoms: C_9  and  C_10
REMARK    5  A    between atoms: C_11  and  S_12
REMARK    6  A    between atoms: S_12  and  N_15
REMARK    7  A    between atoms: N_15  and  C_16
REMARK    8  A    between atoms: C_16  and  C_17
REMARK    9  A    between atoms: C_17  and  C_18
REMARK   10  A    between atoms: C_17  and  N_25
REMARK   11  A    between atoms: N_25  and  C_26
REMARK   12  A    between atoms: N_25  and  C_27
REMARK                            x       y       z     vdW  Elec       q    Type
REMARK                         _______ _______ _______ _____ _____    ______ ____
ROOT
ATOM      1  S   UNL     1      23.071  -0.477 -10.320  0.00  0.00    +0.059 S 
ATOM      2  O   UNL     1      22.735  -0.333  -8.860  0.00  0.00    -0.153 OA
ATOM      3  O   UNL     1      22.244   0.498 -11.109  0.00  0.00    -0.153 OA
ENDROOT
BRANCH   1  10
ATOM      4  C   UNL     1      26.896   1.267 -13.454  0.00  0.00    +0.044 C 
ATOM      5  C   UNL     1      26.512   0.715 -12.112  0.00  0.00    -0.047 A 
ATOM      6  C   UNL     1      27.497   0.374 -11.185  0.00  0.00    +0.030 A 
ATOM      7  C   UNL     1      27.159  -0.161  -9.934  0.00  0.00    +0.093 A 
ATOM      8  C   UNL     1      25.787  -0.341  -9.598  0.00  0.00    +0.001 A 
ATOM      9  C   UNL     1      25.392  -0.794  -8.210  0.00  0.00    +0.048 C 
ATOM     10  C   UNL     1      24.795  -0.108 -10.591  0.00  0.00    +0.110 A 
ATOM     11  C   UNL     1      25.172   0.455 -11.820  0.00  0.00    +0.032 A 
BRANCH   7  12
ATOM     12  S   UNL     1      28.470  -0.598  -8.816  0.00  0.00    -0.006 S 
ATOM     13  C   UNL     1      28.041  -0.297  -7.111  0.00  0.00    +0.200 C 
ATOM     14  O   UNL     1      29.688   0.229  -9.122  0.00  0.00    -0.170 OA
ATOM     15  O   UNL     1      28.798  -2.055  -8.976  0.00  0.00    -0.170 OA
ENDBRANCH   7  12
ENDBRANCH   1  10
BRANCH   1  16
ATOM     16  N   UNL     1      22.641  -2.092 -10.806  0.00  0.00    -0.188 NA
ATOM     17  H   UNL     1      22.549  -2.681  -9.948  0.00  0.00    +0.148 HD
BRANCH  16  18
ATOM     18  C   UNL     1      21.369  -2.083 -11.538  0.00  0.00    +0.129 C 
BRANCH  18  19
ATOM     19  C   UNL     1      20.186  -1.957 -10.553  0.00  0.00    +0.102 C 
BRANCH  19  20
ATOM     20  C   UNL     1      19.682  -0.520 -10.408  0.00  0.00    -0.026 A 
ATOM     21  C   UNL     1      19.561   0.347 -11.515  0.00  0.00    +0.005 A 
ATOM     22  C   UNL     1      19.086   1.650 -11.345  0.00  0.00    +0.003 A 
ATOM     23  C   UNL     1      18.723   2.106 -10.078  0.00  0.00    +0.038 A 
ATOM     24  C   UNL     1      18.831   1.258  -8.973  0.00  0.00    +0.124 A 
ATOM     25  F   UNL     1      18.474   1.700  -7.742  0.00  0.00    -0.205 F 
ATOM     26  C   UNL     1      19.306  -0.047  -9.136  0.00  0.00    +0.043 A 
ENDBRANCH  19  20
BRANCH  19  27
ATOM     27  N   UNL     1      19.113  -2.940 -10.869  0.00  0.00    -0.300 NA
ATOM     28  C   UNL     1      17.775  -2.398 -10.582  0.00  0.00    +0.105 C 
ATOM     29  C   UNL     1      19.157  -3.474 -12.242  0.00  0.00    +0.105 C 
ENDBRANCH  19  27
ENDBRANCH  18  19
ENDBRANCH  16  18
ENDBRANCH   1  16
TORSDOF 7
