REMARK  Name = 
REMARK  8 active torsions:
REMARK  status: ('A' for Active; 'I' for Inactive)
REMARK    1  A    between atoms: C_1  and  C_2
REMARK    2  A    between atoms: C_7  and  N_8
REMARK    3  A    between atoms: N_8  and  C_9
REMARK    4  A    between atoms: C_9  and  C_10
REMARK    5  A    between atoms: C_10  and  N_11
REMARK    6  A    between atoms: N_11  and  S_12
REMARK    7  A    between atoms: S_12  and  C_15
REMARK    8  A    between atoms: C_21  and  C_22
REMARK                            x       y       z     vdW  Elec       q    Type
REMARK                         _______ _______ _______ _____ _____    ______ ____
ROOT
ATOM      1  C   UNL     1      24.001   0.244 -12.512  0.00  0.00    +0.131 C 
ENDROOT
BRANCH   1   2
ATOM      2  C   UNL     1      25.320   0.591 -11.758  0.00  0.00    +0.046 C 
ATOM      3  C   UNL     1      25.852   1.964 -12.217  0.00  0.00    +0.027 C 
ATOM      4  C   UNL     1      26.697   1.691 -13.447  0.00  0.00    +0.002 C 
ATOM      5  C   UNL     1      27.282   0.303 -13.242  0.00  0.00    +0.002 C 
ATOM      6  C   UNL     1      26.445  -0.383 -12.163  0.00  0.00    +0.027 C 
BRANCH   2   7
ATOM      7  N   UNL     1      25.113   0.582 -10.290  0.00  0.00    -0.337 N 
ATOM      8  H   UNL     1      24.132   0.632  -9.938  0.00  0.00    +0.147 HD
BRANCH   7  15
ATOM      9  C   UNL     1      26.689   2.816  -9.225  0.00  0.00    +0.045 C 
ATOM     10  C   UNL     1      26.911   1.395  -8.778  0.00  0.00    -0.030 A 
ATOM     11  C   UNL     1      27.921   1.128  -7.837  0.00  0.00    +0.005 A 
ATOM     12  C   UNL     1      28.163  -0.177  -7.409  0.00  0.00    +0.000 A 
ATOM     13  C   UNL     1      27.409  -1.230  -7.919  0.00  0.00    +0.002 A 
ATOM     14  C   UNL     1      26.411  -0.985  -8.864  0.00  0.00    +0.023 A 
ATOM     15  C   UNL     1      26.138   0.326  -9.301  0.00  0.00    +0.031 A 
ENDBRANCH   7  15
ENDBRANCH   2   7
ENDBRANCH   1   2
BRANCH   1  16
ATOM     16  N   UNL     1      23.351  -0.955 -11.963  0.00  0.00    -0.188 NA
ATOM     17  H   UNL     1      22.727  -1.370 -12.688  0.00  0.00    +0.148 HD
BRANCH  16  18
ATOM     18  S   UNL     1      22.313  -0.511 -10.644  0.00  0.00    +0.060 S 
ATOM     19  O   UNL     1      22.891  -1.060  -9.369  0.00  0.00    -0.153 OA
ATOM     20  O   UNL     1      22.247   0.986 -10.517  0.00  0.00    -0.153 OA
BRANCH  18  21
ATOM     21  C   UNL     1      20.703  -1.216 -10.892  0.00  0.00    +0.123 A 
ATOM     22  C   UNL     1      20.629  -2.560 -11.292  0.00  0.00    +0.032 A 
ATOM     23  C   UNL     1      19.395  -3.166 -11.529  0.00  0.00    +0.040 A 
ATOM     24  C   UNL     1      18.216  -2.435 -11.377  0.00  0.00    +0.125 A 
ATOM     25  F   UNL     1      17.019  -3.023 -11.621  0.00  0.00    -0.205 F 
ATOM     26  C   UNL     1      18.271  -1.093 -10.993  0.00  0.00    +0.059 A 
ATOM     27  C   UNL     1      19.505  -0.474 -10.749  0.00  0.00    +0.081 A 
BRANCH  27  28
ATOM     28  C   UNL     1      19.504   0.920 -10.381  0.00  0.00    +0.101 C 
ATOM     29  N   UNL     1      19.507   2.040 -10.089  0.00  0.00    -0.191 NA
ENDBRANCH  27  28
ENDBRANCH  18  21
ENDBRANCH  16  18
ENDBRANCH   1  16
TORSDOF 7
