REMARK  Name = 
REMARK  13 active torsions:
REMARK  status: ('A' for Active; 'I' for Inactive)
REMARK    1  A    between atoms: C_1  and  C_2
REMARK    2  A    between atoms: C_4  and  S_5
REMARK    3  A    between atoms: S_5  and  C_6
REMARK    4  A    between atoms: C_9  and  C_10
REMARK    5  A    between atoms: C_11  and  S_12
REMARK    6  A    between atoms: S_12  and  N_15
REMARK    7  A    between atoms: N_15  and  C_16
REMARK    8  A    between atoms: C_16  and  C_17
REMARK    9  A    between atoms: C_17  and  C_18
REMARK   10  A    between atoms: C_17  and  C_22
REMARK   11  A    between atoms: C_18  and  C_19
REMARK   12  A    between atoms: C_19  and  C_20
REMARK   13  A    between atoms: C_19  and  O_21
REMARK                            x       y       z     vdW  Elec       q    Type
REMARK                         _______ _______ _______ _____ _____    ______ ____
ROOT
ATOM      1  S   UNL     1      25.160   0.574 -12.817  0.00  0.00    +0.059 S 
ATOM      2  O   UNL     1      24.458   1.721 -13.488  0.00  0.00    -0.153 OA
ATOM      3  O   UNL     1      26.060  -0.098 -13.817  0.00  0.00    -0.153 OA
ENDROOT
BRANCH   1  10
ATOM      4  C   UNL     1      26.354   4.518  -9.578  0.00  0.00    +0.044 C 
ATOM      5  C   UNL     1      26.608   3.097  -9.989  0.00  0.00    -0.047 A 
ATOM      6  C   UNL     1      27.452   2.285  -9.229  0.00  0.00    +0.030 A 
ATOM      7  C   UNL     1      27.686   0.950  -9.588  0.00  0.00    +0.093 A 
ATOM      8  C   UNL     1      27.071   0.422 -10.757  0.00  0.00    +0.001 A 
ATOM      9  C   UNL     1      27.412  -0.971 -11.240  0.00  0.00    +0.048 C 
ATOM     10  C   UNL     1      26.116   1.213 -11.455  0.00  0.00    +0.110 A 
ATOM     11  C   UNL     1      25.931   2.553 -11.082  0.00  0.00    +0.032 A 
BRANCH   7  12
ATOM     12  S   UNL     1      28.751  -0.029  -8.555  0.00  0.00    -0.006 S 
ATOM     13  C   UNL     1      28.147  -0.162  -6.883  0.00  0.00    +0.200 C 
ATOM     14  O   UNL     1      28.845  -1.424  -9.110  0.00  0.00    -0.170 OA
ATOM     15  O   UNL     1      30.120   0.590  -8.520  0.00  0.00    -0.170 OA
ENDBRANCH   7  12
ENDBRANCH   1  10
BRANCH   1  16
ATOM     16  N   UNL     1      23.968  -0.591 -12.314  0.00  0.00    -0.189 NA
ATOM     17  H   UNL     1      23.704  -1.175 -13.140  0.00  0.00    +0.148 HD
BRANCH  16  18
ATOM     18  C   UNL     1      22.777   0.087 -11.791  0.00  0.00    +0.114 C 
BRANCH  18  19
ATOM     19  C   UNL     1      22.325  -0.566 -10.465  0.00  0.00    +0.037 C 
BRANCH  19  20
ATOM     20  C   UNL     1      20.944  -1.208 -10.507  0.00  0.00    -0.043 A 
ATOM     21  C   UNL     1      19.904  -0.631  -9.755  0.00  0.00    +0.004 A 
ATOM     22  C   UNL     1      18.631  -1.208  -9.738  0.00  0.00    +0.000 A 
ATOM     23  C   UNL     1      18.381  -2.372 -10.465  0.00  0.00    +0.000 A 
ATOM     24  C   UNL     1      19.403  -2.963 -11.208  0.00  0.00    +0.000 A 
ATOM     25  C   UNL     1      20.679  -2.392 -11.230  0.00  0.00    +0.004 A 
ENDBRANCH  19  20
BRANCH  19  26
ATOM     26  C   UNL     1      23.409  -1.489  -9.839  0.00  0.00    +0.040 C 
BRANCH  26  27
ATOM     27  C   UNL     1      24.624  -0.839  -9.125  0.00  0.00    +0.112 C 
ATOM     28  C   UNL     1      24.778  -1.257  -7.664  0.00  0.00    +0.037 C 
BRANCH  27  29
ATOM     29  O   UNL     1      24.587   0.562  -9.213  0.00  0.00    -0.392 OA
ATOM     30  H   UNL     1      23.672   0.843  -8.951  0.00  0.00    +0.210 HD
ENDBRANCH  27  29
ENDBRANCH  26  27
ENDBRANCH  19  26
ENDBRANCH  18  19
ENDBRANCH  16  18
ENDBRANCH   1  16
TORSDOF 9
