REMARK  Name = 
REMARK  8 active torsions:
REMARK  status: ('A' for Active; 'I' for Inactive)
REMARK    1  A    between atoms: C_1  and  S_2
REMARK    2  A    between atoms: S_2  and  C_5
REMARK    3  A    between atoms: C_8  and  C_9
REMARK    4  A    between atoms: C_9  and  O_11
REMARK    5  A    between atoms: O_11  and  C_12
REMARK    6  A    between atoms: C_18  and  C_19
REMARK    7  A    between atoms: C_19  and  C_21
REMARK    8  A    between atoms: C_28  and  N_29
REMARK                            x       y       z     vdW  Elec       q    Type
REMARK                         _______ _______ _______ _____ _____    ______ ____
ROOT
ATOM      1  O   UNL     1      25.297   0.664  -9.836  0.00  0.00    -0.422 OA
ENDROOT
BRANCH   1   2
ATOM      2  C   UNL     1      25.720   0.652 -11.176  0.00  0.00    +0.143 A 
ATOM      3  C   UNL     1      24.797   0.722 -12.237  0.00  0.00    +0.050 A 
ATOM      4  C   UNL     1      25.240   0.735 -13.561  0.00  0.00    +0.042 A 
ATOM      5  C   UNL     1      26.605   0.687 -13.843  0.00  0.00    +0.124 A 
ATOM      6  F   UNL     1      27.031   0.693 -15.129  0.00  0.00    -0.205 F 
ATOM      7  C   UNL     1      27.533   0.634 -12.800  0.00  0.00    +0.053 A 
ATOM      8  C   UNL     1      27.103   0.630 -11.461  0.00  0.00    +0.067 A 
BRANCH   8   9
ATOM      9  C   UNL     1      28.101   0.554 -10.366  0.00  0.00    +0.197 C 
ATOM     10  O   UNL     1      29.083   1.346 -10.382  0.00  0.00    -0.287 OA
BRANCH   9  11
ATOM     11  C   UNL     1      27.975  -0.414  -9.248  0.00  0.00    +0.022 A 
ATOM     12  C   UNL     1      28.014   0.037  -7.916  0.00  0.00    +0.012 A 
ATOM     13  C   UNL     1      27.910  -0.869  -6.857  0.00  0.00    +0.001 A 
ATOM     14  C   UNL     1      27.776  -2.235  -7.114  0.00  0.00    +0.000 A 
ATOM     15  C   UNL     1      27.751  -2.698  -8.432  0.00  0.00    +0.001 A 
ATOM     16  C   UNL     1      27.854  -1.795  -9.495  0.00  0.00    +0.012 A 
ENDBRANCH   9  11
ENDBRANCH   8   9
ENDBRANCH   1   2
BRANCH   1  17
ATOM     17  C   UNL     1      24.556  -0.346  -9.207  0.00  0.00    +0.345 C 
ATOM     18  O   UNL     1      25.015  -0.932  -8.188  0.00  0.00    -0.245 OA
BRANCH  17  22
ATOM     19  C   UNL     1      20.625  -1.338 -10.660  0.00  0.00    +0.118 A 
ATOM     20  C   UNL     1      21.698  -2.232 -10.810  0.00  0.00    +0.030 A 
ATOM     21  C   UNL     1      22.972  -1.907 -10.344  0.00  0.00    +0.017 A 
ATOM     22  C   UNL     1      23.205  -0.680  -9.708  0.00  0.00    +0.062 A 
ATOM     23  C   UNL     1      22.139   0.223  -9.561  0.00  0.00    +0.049 A 
ATOM     24  C   UNL     1      20.855  -0.083 -10.044  0.00  0.00    +0.152 A 
BRANCH  19  26
ATOM     25  C   UNL     1      18.189  -2.753  -9.881  0.00  0.00    +0.200 C 
ATOM     26  S   UNL     1      19.011  -1.858 -11.183  0.00  0.00    -0.004 S 
ATOM     27  O   UNL     1      18.192  -0.665 -11.590  0.00  0.00    -0.170 OA
ATOM     28  O   UNL     1      19.129  -2.780 -12.363  0.00  0.00    -0.170 OA
ENDBRANCH  19  26
BRANCH  24  29
ATOM     29  N   UNL     1      19.813   0.893  -9.893  0.00  0.00    +0.058 N 
ATOM     30  O   UNL     1      18.998   0.801  -8.953  0.00  0.00    -0.126 OA
ATOM     31  O   UNL     1      19.552   1.776 -10.915  0.00  0.00    -0.126 OA
ENDBRANCH  24  29
ENDBRANCH  17  22
ENDBRANCH   1  17
TORSDOF 7
