REMARK  Name = 
REMARK  7 active torsions:
REMARK  status: ('A' for Active; 'I' for Inactive)
REMARK    1  A    between atoms: C_1  and  N_2
REMARK    2  A    between atoms: N_2  and  C_3
REMARK    3  A    between atoms: N_2  and  S_17
REMARK    4  A    between atoms: C_3  and  C_4
REMARK    5  A    between atoms: C_3  and  C_10
REMARK    6  A    between atoms: S_17  and  C_20
REMARK    7  A    between atoms: C_25  and  C_26
REMARK                            x       y       z     vdW  Elec       q    Type
REMARK                         _______ _______ _______ _____ _____    ______ ____
ROOT
ATOM      1  C   UNL     1      23.556  -0.201  -8.570  0.00  0.00    +0.132 C 
ATOM      2  N   UNL     1      23.893  -0.160 -10.001  0.00  0.00    -0.168 NA
ENDROOT
BRANCH   2   3
ATOM      3  S   UNL     1      22.962  -1.360 -10.866  0.00  0.00    +0.062 S 
ATOM      4  O   UNL     1      23.305  -2.736 -10.362  0.00  0.00    -0.153 OA
ATOM      5  O   UNL     1      23.257  -1.285 -12.338  0.00  0.00    -0.153 OA
BRANCH   3   6
ATOM      6  C   UNL     1      21.244  -1.047 -10.637  0.00  0.00    +0.109 A 
ATOM      7  C   UNL     1      20.299  -2.073 -10.790  0.00  0.00    +0.067 A 
ATOM      8  C   UNL     1      18.940  -1.810 -10.595  0.00  0.00    +0.126 A 
ATOM      9  F   UNL     1      18.029  -2.804 -10.744  0.00  0.00    -0.205 F 
ATOM     10  C   UNL     1      18.518  -0.523 -10.247  0.00  0.00    +0.057 A 
ATOM     11  C   UNL     1      19.456   0.505 -10.092  0.00  0.00    +0.056 A 
ATOM     12  C   UNL     1      20.818   0.242 -10.289  0.00  0.00    +0.047 A 
BRANCH  11  13
ATOM     13  C   UNL     1      19.023   1.829  -9.731  0.00  0.00    +0.099 C 
ATOM     14  N   UNL     1      18.675   2.894  -9.440  0.00  0.00    -0.191 NA
ENDBRANCH  11  13
ENDBRANCH   3   6
ENDBRANCH   2   3
BRANCH   2  15
ATOM     15  C   UNL     1      25.349  -0.226 -10.316  0.00  0.00    +0.140 C 
BRANCH  15  16
ATOM     16  C   UNL     1      26.221   0.582  -9.340  0.00  0.00    -0.010 A 
ATOM     17  C   UNL     1      26.279   1.990  -9.451  0.00  0.00    +0.006 A 
ATOM     18  C   UNL     1      27.053   2.749  -8.573  0.00  0.00    +0.000 A 
ATOM     19  C   UNL     1      27.799   2.122  -7.578  0.00  0.00    +0.001 A 
ATOM     20  C   UNL     1      27.790   0.732  -7.473  0.00  0.00    +0.015 A 
ATOM     21  C   UNL     1      27.021  -0.045  -8.347  0.00  0.00    +0.023 A 
ATOM     22 BR   UNL     1      27.169  -1.950  -8.154  0.00  0.00    -0.050 Br
ENDBRANCH  15  16
BRANCH  15  23
ATOM     23  C   UNL     1      25.630   0.126 -11.777  0.00  0.00    -0.024 A 
ATOM     24  C   UNL     1      24.830   1.084 -12.436  0.00  0.00    +0.005 A 
ATOM     25  C   UNL     1      25.108   1.463 -13.752  0.00  0.00    +0.000 A 
ATOM     26  C   UNL     1      26.204   0.919 -14.422  0.00  0.00    +0.000 A 
ATOM     27  C   UNL     1      27.034   0.006 -13.771  0.00  0.00    +0.000 A 
ATOM     28  C   UNL     1      26.763  -0.377 -12.453  0.00  0.00    +0.005 A 
ENDBRANCH  15  23
ENDBRANCH   2  15
TORSDOF 6
