REMARK  Name = 
REMARK  10 active torsions:
REMARK  status: ('A' for Active; 'I' for Inactive)
REMARK    1  A    between atoms: C_1  and  C_2
REMARK    2  A    between atoms: C_2  and  C_3
REMARK    3  A    between atoms: C_2  and  C_4
REMARK    4  A    between atoms: C_7  and  C_8
REMARK    5  A    between atoms: C_10  and  C_11
REMARK    6  A    between atoms: C_11  and  N_12
REMARK    7  A    between atoms: N_12  and  S_13
REMARK    8  A    between atoms: S_13  and  C_16
REMARK    9  A    between atoms: C_16  and  C_17
REMARK   10  A    between atoms: C_23  and  C_24
REMARK                            x       y       z     vdW  Elec       q    Type
REMARK                         _______ _______ _______ _____ _____    ______ ____
ROOT
ATOM      1  N   UNL     1      24.747   0.632 -10.750  0.00  0.00    -0.194 NA
ATOM      2  H   UNL     1      24.855   1.060  -9.802  0.00  0.00    +0.148 HD
ENDROOT
BRANCH   1   3
ATOM      3  S   UNL     1      23.510  -0.579 -10.599  0.00  0.00    +0.034 S 
ATOM      4  O   UNL     1      23.992  -1.682  -9.698  0.00  0.00    -0.158 OA
ATOM      5  O   UNL     1      23.224  -1.150 -11.959  0.00  0.00    -0.158 OA
BRANCH   3   6
ATOM      6  C   UNL     1      22.012   0.139  -9.936  0.00  0.00    +0.221 C 
BRANCH   6   7
ATOM      7  C   UNL     1      20.804  -0.647 -10.386  0.00  0.00    -0.007 A 
ATOM      8  C   UNL     1      20.951  -2.016 -10.672  0.00  0.00    +0.009 A 
ATOM      9  C   UNL     1      19.851  -2.783 -11.064  0.00  0.00    +0.039 A 
ATOM     10  C   UNL     1      18.589  -2.195 -11.168  0.00  0.00    +0.125 A 
ATOM     11  F   UNL     1      17.523  -2.943 -11.548  0.00  0.00    -0.205 F 
ATOM     12  C   UNL     1      18.423  -0.839 -10.878  0.00  0.00    +0.057 A 
ATOM     13  C   UNL     1      19.519  -0.059 -10.484  0.00  0.00    +0.059 A 
BRANCH  13  14
ATOM     14  C   UNL     1      19.302   1.336 -10.182  0.00  0.00    +0.100 C 
ATOM     15  N   UNL     1      19.128   2.455  -9.940  0.00  0.00    -0.191 NA
ENDBRANCH  13  14
ENDBRANCH   6   7
ENDBRANCH   3   6
ENDBRANCH   1   3
BRANCH   1  16
ATOM     16  C   UNL     1      26.024   0.015 -11.129  0.00  0.00    +0.109 C 
BRANCH  16  23
ATOM     17  C   UNL     1      27.031  -0.005  -8.730  0.00  0.00    -0.004 C 
ATOM     18  C   UNL     1      27.814   0.923  -7.771  0.00  0.00    +0.004 C 
ATOM     19  C   UNL     1      27.275   2.366  -7.795  0.00  0.00    +0.003 C 
ATOM     20  C   UNL     1      26.703   2.788  -9.170  0.00  0.00    -0.014 C 
ATOM     21  C   UNL     1      26.824   4.302  -9.372  0.00  0.00    +0.007 C 
ATOM     22  C   UNL     1      27.388   2.025 -10.320  0.00  0.00    +0.008 C 
ATOM     23  C   UNL     1      27.181   0.486 -10.212  0.00  0.00    +0.008 C 
BRANCH  17  25
ATOM     24  C   UNL     1      27.785  -1.838  -7.101  0.00  0.00    +0.007 C 
ATOM     25  C   UNL     1      27.412  -1.514  -8.555  0.00  0.00    -0.014 C 
ATOM     26  C   UNL     1      28.532  -1.989  -9.501  0.00  0.00    +0.007 C 
ENDBRANCH  17  25
ENDBRANCH  16  23
ENDBRANCH   1  16
TORSDOF 7
