REMARK  Name = 
REMARK  8 active torsions:
REMARK  status: ('A' for Active; 'I' for Inactive)
REMARK    1  A    between atoms: C_1  and  S_2
REMARK    2  A    between atoms: S_2  and  C_5
REMARK    3  A    between atoms: C_8  and  C_9
REMARK    4  A    between atoms: C_15  and  C_16
REMARK    5  A    between atoms: C_16  and  C_17
REMARK    6  A    between atoms: C_17  and  O_18
REMARK    7  A    between atoms: C_17  and  C_19
REMARK    8  A    between atoms: C_27  and  N_28
REMARK                            x       y       z     vdW  Elec       q    Type
REMARK                         _______ _______ _______ _____ _____    ______ ____
ROOT
ATOM      1  C   UNL     1      24.696  -0.450 -10.638  0.00  0.00    +0.247 C 
ATOM      2  O   UNL     1      25.423  -0.970  -9.748  0.00  0.00    -0.270 OA
ATOM      3  N   UNL     1      25.289   0.422 -11.619  0.00  0.00    -0.294 N 
ATOM      4  C   UNL     1      24.881   0.411 -13.016  0.00  0.00    +0.108 C 
ATOM      5  C   UNL     1      26.083   0.924 -13.795  0.00  0.00    +0.021 C 
ATOM      6  C   UNL     1      26.928   1.686 -12.782  0.00  0.00    +0.024 C 
ATOM      7  C   UNL     1      26.571   1.086 -11.417  0.00  0.00    +0.079 C 
ENDROOT
BRANCH   1  11
ATOM      8  C   UNL     1      20.486  -1.333 -10.733  0.00  0.00    +0.118 A 
ATOM      9  C   UNL     1      21.438  -2.351 -10.908  0.00  0.00    +0.030 A 
ATOM     10  C   UNL     1      22.803  -2.067 -10.873  0.00  0.00    +0.015 A 
ATOM     11  C   UNL     1      23.249  -0.758 -10.655  0.00  0.00    +0.039 A 
ATOM     12  C   UNL     1      22.308   0.266 -10.484  0.00  0.00    +0.047 A 
ATOM     13  C   UNL     1      20.930  -0.007 -10.493  0.00  0.00    +0.152 A 
BRANCH   8  15
ATOM     14  C   UNL     1      18.489  -3.135 -11.943  0.00  0.00    +0.200 C 
ATOM     15  S   UNL     1      18.764  -1.732 -10.878  0.00  0.00    -0.004 S 
ATOM     16  O   UNL     1      18.026  -0.565 -11.474  0.00  0.00    -0.170 OA
ATOM     17  O   UNL     1      18.204  -2.039  -9.518  0.00  0.00    -0.170 OA
ENDBRANCH   8  15
BRANCH  13  18
ATOM     18  N   UNL     1      20.010   1.069 -10.251  0.00  0.00    +0.058 N 
ATOM     19  O   UNL     1      19.545   1.728 -11.204  0.00  0.00    -0.126 OA
ATOM     20  O   UNL     1      19.452   1.226  -9.003  0.00  0.00    -0.126 OA
ENDBRANCH  13  18
ENDBRANCH   1  11
BRANCH   7  21
ATOM     21  C   UNL     1      26.466   2.151 -10.303  0.00  0.00    +0.058 C 
BRANCH  21  22
ATOM     22  C   UNL     1      27.560   1.996  -9.220  0.00  0.00    +0.146 C 
BRANCH  22  23
ATOM     23  C   UNL     1      27.667   0.559  -8.744  0.00  0.00    -0.019 A 
ATOM     24  C   UNL     1      28.399  -0.394  -9.477  0.00  0.00    +0.009 A 
ATOM     25  C   UNL     1      28.488  -1.716  -9.030  0.00  0.00    +0.039 A 
ATOM     26  C   UNL     1      27.848  -2.100  -7.849  0.00  0.00    +0.123 A 
ATOM     27  F   UNL     1      27.935  -3.383  -7.418  0.00  0.00    -0.205 F 
ATOM     28  C   UNL     1      27.118  -1.164  -7.114  0.00  0.00    +0.039 A 
ATOM     29  C   UNL     1      27.026   0.160  -7.557  0.00  0.00    +0.009 A 
ENDBRANCH  22  23
BRANCH  22  30
ATOM     30  O   UNL     1      27.345   2.858  -8.130  0.00  0.00    -0.387 OA
ATOM     31  H   UNL     1      28.190   2.915  -7.613  0.00  0.00    +0.210 HD
ENDBRANCH  22  30
ENDBRANCH  21  22
ENDBRANCH   7  21
TORSDOF 7
