REMARK  Name = 
REMARK  8 active torsions:
REMARK  status: ('A' for Active; 'I' for Inactive)
REMARK    1  A    between atoms: C_1  and  C_2
REMARK    2  A    between atoms: C_6  and  C_7
REMARK    3  A    between atoms: C_7  and  C_8
REMARK    4  A    between atoms: C_8  and  N_9
REMARK    5  A    between atoms: N_9  and  S_10
REMARK    6  A    between atoms: S_10  and  C_13
REMARK    7  A    between atoms: C_13  and  C_14
REMARK    8  A    between atoms: C_20  and  C_21
REMARK                            x       y       z     vdW  Elec       q    Type
REMARK                         _______ _______ _______ _____ _____    ______ ____
ROOT
ATOM      1  N   UNL     1      23.667  -0.710 -11.850  0.00  0.00    -0.193 NA
ATOM      2  H   UNL     1      22.776  -0.987 -12.323  0.00  0.00    +0.148 HD
ENDROOT
BRANCH   1   3
ATOM      3  S   UNL     1      23.388  -0.854 -10.141  0.00  0.00    +0.034 S 
ATOM      4  O   UNL     1      23.384  -2.303  -9.734  0.00  0.00    -0.158 OA
ATOM      5  O   UNL     1      24.487  -0.142  -9.403  0.00  0.00    -0.158 OA
BRANCH   3   6
ATOM      6  C   UNL     1      21.824  -0.094  -9.726  0.00  0.00    +0.221 C 
BRANCH   6   7
ATOM      7  C   UNL     1      20.681  -0.865 -10.341  0.00  0.00    -0.007 A 
ATOM      8  C   UNL     1      20.937  -2.125 -10.910  0.00  0.00    +0.009 A 
ATOM      9  C   UNL     1      19.909  -2.853 -11.512  0.00  0.00    +0.039 A 
ATOM     10  C   UNL     1      18.616  -2.331 -11.563  0.00  0.00    +0.125 A 
ATOM     11  F   UNL     1      17.622  -3.041 -12.150  0.00  0.00    -0.205 F 
ATOM     12  C   UNL     1      18.347  -1.075 -11.014  0.00  0.00    +0.057 A 
ATOM     13  C   UNL     1      19.370  -0.333 -10.406  0.00  0.00    +0.059 A 
BRANCH  13  14
ATOM     14  C   UNL     1      19.053   0.965  -9.863  0.00  0.00    +0.100 C 
ATOM     15  N   UNL     1      18.797   2.006  -9.425  0.00  0.00    -0.191 NA
ENDBRANCH  13  14
ENDBRANCH   6   7
ENDBRANCH   3   6
ENDBRANCH   1   3
BRANCH   1  16
ATOM     16  C   UNL     1      23.959   0.685 -12.200  0.00  0.00    +0.117 C 
BRANCH  16  17
ATOM     17  C   UNL     1      25.480   0.879 -12.453  0.00  0.00    +0.010 C 
ATOM     18  C   UNL     1      26.169  -0.467 -12.737  0.00  0.00    +0.013 C 
ATOM     19  C   UNL     1      27.370  -0.139 -13.618  0.00  0.00    +0.001 C 
ATOM     20  C   UNL     1      27.043   1.174 -14.326  0.00  0.00    +0.001 C 
ATOM     21  C   UNL     1      25.686   1.623 -13.791  0.00  0.00    +0.013 C 
BRANCH  17  27
ATOM     22  C   UNL     1      26.323   4.887  -9.367  0.00  0.00    +0.044 C 
ATOM     23  C   UNL     1      26.554   3.447  -9.726  0.00  0.00    -0.050 A 
ATOM     24  C   UNL     1      27.452   2.674  -8.982  0.00  0.00    +0.003 A 
ATOM     25  C   UNL     1      27.703   1.354  -9.343  0.00  0.00    +0.001 A 
ATOM     26  C   UNL     1      27.065   0.795 -10.452  0.00  0.00    +0.004 A 
ATOM     27  C   UNL     1      26.154   1.546 -11.228  0.00  0.00    -0.040 A 
ATOM     28  C   UNL     1      25.925   2.892 -10.851  0.00  0.00    +0.007 A 
ENDBRANCH  17  27
ENDBRANCH  16  17
ENDBRANCH   1  16
TORSDOF 7
