REMARK  Name = 
REMARK  7 active torsions:
REMARK  status: ('A' for Active; 'I' for Inactive)
REMARK    1  A    between atoms: C_1  and  C_2
REMARK    2  A    between atoms: C_5  and  C_6
REMARK    3  A    between atoms: C_13  and  C_14
REMARK    4  A    between atoms: C_14  and  O_15
REMARK    5  A    between atoms: C_14  and  C_16
REMARK    6  A    between atoms: C_23  and  S_24
REMARK    7  A    between atoms: S_24  and  C_25
REMARK                            x       y       z     vdW  Elec       q    Type
REMARK                         _______ _______ _______ _____ _____    ______ ____
ROOT
ATOM      1  C   UNL     1      24.452   0.148 -10.166  0.00  0.00    +0.247 C 
ATOM      2  O   UNL     1      24.878   0.143  -8.979  0.00  0.00    -0.270 OA
ATOM      3  N   UNL     1      25.271   0.698 -11.214  0.00  0.00    -0.292 N 
ATOM      4  C   UNL     1      24.733   1.766 -12.069  0.00  0.00    +0.108 C 
ATOM      5  C   UNL     1      24.834   1.399 -13.563  0.00  0.00    +0.019 C 
ATOM      6  C   UNL     1      25.985   0.426 -13.880  0.00  0.00    +0.003 C 
ATOM      7  C   UNL     1      27.129   0.551 -12.871  0.00  0.00    +0.025 C 
ATOM      8  C   UNL     1      26.634   0.176 -11.450  0.00  0.00    +0.109 C 
ENDROOT
BRANCH   1  13
ATOM      9  C   UNL     1      19.187  -2.037 -11.285  0.00  0.00    +0.046 C 
ATOM     10  C   UNL     1      20.536  -1.427 -11.007  0.00  0.00    -0.026 A 
ATOM     11  C   UNL     1      21.675  -2.244 -11.101  0.00  0.00    +0.006 A 
ATOM     12  C   UNL     1      22.946  -1.732 -10.833  0.00  0.00    +0.013 A 
ATOM     13  C   UNL     1      23.105  -0.393 -10.455  0.00  0.00    +0.039 A 
ATOM     14  C   UNL     1      21.974   0.430 -10.367  0.00  0.00    +0.040 A 
ATOM     15  C   UNL     1      20.688  -0.073 -10.618  0.00  0.00    +0.091 A 
BRANCH  15  16
ATOM     16  S   UNL     1      19.314   1.039 -10.471  0.00  0.00    -0.006 S 
ATOM     17  C   UNL     1      18.420   0.693  -8.972  0.00  0.00    +0.200 C 
ATOM     18  O   UNL     1      19.783   2.467 -10.470  0.00  0.00    -0.170 OA
ATOM     19  O   UNL     1      18.385   0.853 -11.640  0.00  0.00    -0.170 OA
ENDBRANCH  15  16
ENDBRANCH   1  13
BRANCH   8  20
ATOM     20  C   UNL     1      27.617   0.620 -10.325  0.00  0.00    +0.165 C 
BRANCH  20  21
ATOM     21  C   UNL     1      27.711  -0.394  -9.197  0.00  0.00    -0.017 A 
ATOM     22  C   UNL     1      27.812   0.061  -7.869  0.00  0.00    +0.006 A 
ATOM     23  C   UNL     1      27.858  -0.848  -6.808  0.00  0.00    +0.000 A 
ATOM     24  C   UNL     1      27.795  -2.220  -7.059  0.00  0.00    +0.000 A 
ATOM     25  C   UNL     1      27.681  -2.686  -8.370  0.00  0.00    +0.000 A 
ATOM     26  C   UNL     1      27.635  -1.782  -9.436  0.00  0.00    +0.006 A 
ENDBRANCH  20  21
BRANCH  20  27
ATOM     27  O   UNL     1      28.887   0.977 -10.819  0.00  0.00    -0.385 OA
ATOM     28  H   UNL     1      28.775   1.706 -11.480  0.00  0.00    +0.210 HD
ENDBRANCH  20  27
ENDBRANCH   8  20
TORSDOF 5
