REMARK  Name = 
REMARK  5 active torsions:
REMARK  status: ('A' for Active; 'I' for Inactive)
REMARK    1  A    between atoms: C_2  and  C_3
REMARK    2  A    between atoms: C_9  and  C_10
REMARK    3  A    between atoms: C_10  and  S_11
REMARK    4  A    between atoms: S_11  and  N_14
REMARK    5  A    between atoms: N_14  and  C_15
REMARK                            x       y       z     vdW  Elec       q    Type
REMARK                         _______ _______ _______ _____ _____    ______ ____
ROOT
ATOM      1  S   UNL     1      23.463  -0.692 -10.087  0.00  0.00    +0.034 S 
ATOM      2  O   UNL     1      23.690  -0.905 -11.558  0.00  0.00    -0.158 OA
ATOM      3  O   UNL     1      23.434  -2.026  -9.399  0.00  0.00    -0.158 OA
ENDROOT
BRANCH   1   4
ATOM      4  N   UNL     1      24.747   0.264  -9.401  0.00  0.00    -0.190 NA
ATOM      5  H   UNL     1      24.504   1.248  -9.651  0.00  0.00    +0.148 HD
BRANCH   4   6
ATOM      6  C   UNL     1      26.026  -0.075 -10.048  0.00  0.00    +0.090 C 
ATOM      7  C   UNL     1      27.239   0.686  -9.458  0.00  0.00    +0.040 C 
ATOM      8  C   UNL     1      27.004   1.797  -8.462  0.00  0.00    +0.036 C 
ATOM      9  C   UNL     1      26.723   3.014  -9.318  0.00  0.00    +0.160 C 
ATOM     10  O   UNL     1      27.202   2.793 -10.624  0.00  0.00    -0.376 OA
ATOM     11  C   UNL     1      27.446   1.408 -10.774  0.00  0.00    +0.131 C 
ATOM     12  C   UNL     1      26.269   0.627 -11.404  0.00  0.00    +0.015 C 
ATOM     13  C   UNL     1      25.155   1.469 -12.037  0.00  0.00    +0.011 C 
ATOM     14  C   UNL     1      25.623   1.684 -13.469  0.00  0.00    +0.001 C 
ATOM     15  C   UNL     1      26.534   0.499 -13.811  0.00  0.00    +0.001 C 
ATOM     16  C   UNL     1      26.719  -0.308 -12.528  0.00  0.00    +0.011 C 
ENDBRANCH   4   6
ENDBRANCH   1   4
BRANCH   1  17
ATOM     17  C   UNL     1      21.898   0.138  -9.843  0.00  0.00    +0.221 C 
BRANCH  17  24
ATOM     18  C   UNL     1      19.430  -0.223 -10.414  0.00  0.00    +0.059 A 
ATOM     19  C   UNL     1      18.413  -1.034 -10.940  0.00  0.00    +0.057 A 
ATOM     20  C   UNL     1      18.714  -2.292 -11.466  0.00  0.00    +0.125 A 
ATOM     21  F   UNL     1      17.726  -3.071 -11.971  0.00  0.00    -0.205 F 
ATOM     22  C   UNL     1      20.033  -2.752 -11.467  0.00  0.00    +0.039 A 
ATOM     23  C   UNL     1      21.054  -1.954 -10.947  0.00  0.00    +0.009 A 
ATOM     24  C   UNL     1      20.769  -0.679 -10.424  0.00  0.00    -0.007 A 
BRANCH  18  26
ATOM     25  N   UNL     1      18.787   2.099  -9.437  0.00  0.00    -0.191 NA
ATOM     26  C   UNL     1      19.073   1.065  -9.872  0.00  0.00    +0.100 C 
ENDBRANCH  18  26
ENDBRANCH  17  24
ENDBRANCH   1  17
TORSDOF 5
