REMARK  Name = 
REMARK  5 active torsions:
REMARK  status: ('A' for Active; 'I' for Inactive)
REMARK    1  A    between atoms: C_1  and  S_2
REMARK    2  A    between atoms: S_2  and  C_5
REMARK    3  A    between atoms: C_8  and  C_9
REMARK    4  A    between atoms: N_11  and  C_12
REMARK    5  A    between atoms: C_14  and  C_15
REMARK                            x       y       z     vdW  Elec       q    Type
REMARK                         _______ _______ _______ _____ _____    ______ ____
ROOT
ATOM      1  C   UNL     1      22.880  -1.167 -10.829  0.00  0.00    +0.244 C 
ATOM      2  O   UNL     1      22.921  -1.263 -12.086  0.00  0.00    -0.270 OA
ATOM      3  N   UNL     1      21.681  -1.524 -10.130  0.00  0.00    -0.308 N 
ATOM      4  H   UNL     1      21.478  -1.069  -9.213  0.00  0.00    +0.149 HD
ENDROOT
BRANCH   1   8
ATOM      5  C   UNL     1      26.321   0.231  -8.650  0.00  0.00    +0.102 A 
ATOM      6  C   UNL     1      25.510  -0.790  -8.129  0.00  0.00    +0.029 A 
ATOM      7  C   UNL     1      24.394  -1.244  -8.838  0.00  0.00    +0.015 A 
ATOM      8  C   UNL     1      24.071  -0.694 -10.086  0.00  0.00    +0.038 A 
ATOM      9  C   UNL     1      24.874   0.336 -10.604  0.00  0.00    +0.030 A 
ATOM     10  C   UNL     1      25.991   0.797  -9.899  0.00  0.00    +0.043 A 
ATOM     11 BR   UNL     1      27.018   2.213 -10.693  0.00  0.00    -0.048 Br
BRANCH   5  13
ATOM     12  C   UNL     1      29.262   0.536  -8.613  0.00  0.00    +0.200 C 
ATOM     13  S   UNL     1      27.730   0.796  -7.739  0.00  0.00    -0.005 S 
ATOM     14  O   UNL     1      27.589   2.268  -7.472  0.00  0.00    -0.170 OA
ATOM     15  O   UNL     1      27.806   0.055  -6.434  0.00  0.00    -0.170 OA
ENDBRANCH   5  13
ENDBRANCH   1   8
BRANCH   3  16
ATOM     16  C   UNL     1      20.657  -2.388 -10.719  0.00  0.00    +0.081 C 
ATOM     17  C   UNL     1      19.537  -2.747  -9.754  0.00  0.00    +0.033 C 
ATOM     18  C   UNL     1      19.273  -1.749 -10.880  0.00  0.00    +0.041 C 
BRANCH  18  19
ATOM     19  C   UNL     1      19.125  -0.305 -10.459  0.00  0.00    -0.042 A 
ATOM     20  C   UNL     1      19.102   0.702 -11.439  0.00  0.00    +0.004 A 
ATOM     21  C   UNL     1      18.956   2.042 -11.071  0.00  0.00    +0.000 A 
ATOM     22  C   UNL     1      18.802   2.386  -9.726  0.00  0.00    +0.000 A 
ATOM     23  C   UNL     1      18.779   1.388  -8.748  0.00  0.00    +0.000 A 
ATOM     24  C   UNL     1      18.925   0.046  -9.113  0.00  0.00    +0.004 A 
ENDBRANCH  18  19
ENDBRANCH   3  16
TORSDOF 4
