REMARK  Name = 
REMARK  10 active torsions:
REMARK  status: ('A' for Active; 'I' for Inactive)
REMARK    1  A    between atoms: C_1  and  C_2
REMARK    2  A    between atoms: C_5  and  C_6
REMARK    3  A    between atoms: N_8  and  C_9
REMARK    4  A    between atoms: C_9  and  C_10
REMARK    5  A    between atoms: C_10  and  N_11
REMARK    6  A    between atoms: N_11  and  C_12
REMARK    7  A    between atoms: C_12  and  C_13
REMARK    8  A    between atoms: C_12  and  C_14
REMARK    9  A    between atoms: C_25  and  S_26
REMARK   10  A    between atoms: S_26  and  C_27
REMARK                            x       y       z     vdW  Elec       q    Type
REMARK                         _______ _______ _______ _____ _____    ______ ____
ROOT
ATOM      1  C   UNL     1      25.550  -0.943  -8.497  0.00  0.00    +0.126 C 
ENDROOT
BRANCH   1   2
ATOM      2  C   UNL     1      26.751   0.047  -8.602  0.00  0.00    +0.035 C 
ATOM      3  C   UNL     1      27.787  -0.361  -9.668  0.00  0.00    +0.024 C 
ATOM      4  C   UNL     1      29.110   0.262  -9.228  0.00  0.00    +0.002 C 
ATOM      5  C   UNL     1      28.964   0.602  -7.746  0.00  0.00    +0.002 C 
ATOM      6  C   UNL     1      27.607   0.061  -7.320  0.00  0.00    +0.024 C 
BRANCH   2   7
ATOM      7  N   UNL     1      26.277   1.434  -8.854  0.00  0.00    -0.303 NA
ATOM      8  H   UNL     1      25.234   1.442  -8.940  0.00  0.00    +0.123 HD
BRANCH   7   9
ATOM      9  C   UNL     1      26.903   2.149  -9.993  0.00  0.00    +0.081 C 
ATOM     10  C   UNL     1      26.634   3.648  -9.844  0.00  0.00    +0.029 C 
BRANCH   9  11
ATOM     11  C   UNL     1      26.395   1.647 -11.339  0.00  0.00    -0.031 A 
ATOM     12  C   UNL     1      25.016   1.515 -11.594  0.00  0.00    +0.005 A 
ATOM     13  C   UNL     1      24.566   1.053 -12.834  0.00  0.00    +0.000 A 
ATOM     14  C   UNL     1      25.483   0.723 -13.835  0.00  0.00    +0.000 A 
ATOM     15  C   UNL     1      26.852   0.861 -13.598  0.00  0.00    +0.000 A 
ATOM     16  C   UNL     1      27.308   1.323 -12.360  0.00  0.00    +0.005 A 
ENDBRANCH   9  11
ENDBRANCH   7   9
ENDBRANCH   2   7
ENDBRANCH   1   2
BRANCH   1  19
ATOM     17  C   UNL     1      23.348  -1.191  -9.753  0.00  0.00    +0.244 C 
ATOM     18  O   UNL     1      23.658  -2.360 -10.115  0.00  0.00    -0.270 OA
ATOM     19  N   UNL     1      24.299  -0.395  -9.026  0.00  0.00    -0.310 N 
ATOM     20  H   UNL     1      24.126   0.628  -8.910  0.00  0.00    +0.149 HD
BRANCH  17  25
ATOM     21  C   UNL     1      18.160   1.021 -11.161  0.00  0.00    +0.046 C 
ATOM     22  C   UNL     1      19.486   0.408 -10.794  0.00  0.00    -0.026 A 
ATOM     23  C   UNL     1      20.559   1.258 -10.481  0.00  0.00    +0.006 A 
ATOM     24  C   UNL     1      21.808   0.736 -10.146  0.00  0.00    +0.013 A 
ATOM     25  C   UNL     1      22.015  -0.651 -10.113  0.00  0.00    +0.039 A 
ATOM     26  C   UNL     1      20.953  -1.506 -10.451  0.00  0.00    +0.040 A 
ATOM     27  C   UNL     1      19.689  -0.994 -10.797  0.00  0.00    +0.091 A 
BRANCH  27  28
ATOM     28  S   UNL     1      18.380  -2.118 -11.221  0.00  0.00    -0.006 S 
ATOM     29  C   UNL     1      18.929  -3.450 -12.271  0.00  0.00    +0.200 C 
ATOM     30  O   UNL     1      17.812  -2.714  -9.964  0.00  0.00    -0.170 OA
ATOM     31  O   UNL     1      17.299  -1.374 -11.955  0.00  0.00    -0.170 OA
ENDBRANCH  27  28
ENDBRANCH  17  25
ENDBRANCH   1  19
TORSDOF 7
