REMARK  Name = 
REMARK  11 active torsions:
REMARK  status: ('A' for Active; 'I' for Inactive)
REMARK    1  A    between atoms: C_1  and  C_2
REMARK    2  A    between atoms: C_2  and  C_3
REMARK    3  A    between atoms: C_2  and  C_4
REMARK    4  A    between atoms: C_4  and  C_5
REMARK    5  A    between atoms: C_4  and  N_13
REMARK    6  A    between atoms: C_5  and  C_6
REMARK    7  A    between atoms: N_16  and  C_17
REMARK    8  A    between atoms: C_17  and  C_18
REMARK    9  A    between atoms: C_18  and  C_19
REMARK   10  A    between atoms: C_24  and  S_25
REMARK   11  A    between atoms: S_25  and  C_26
REMARK                            x       y       z     vdW  Elec       q    Type
REMARK                         _______ _______ _______ _____ _____    ______ ____
ROOT
ATOM      1  N   UNL     1      25.685   1.305 -10.315  0.00  0.00    -0.296 N 
ATOM      2  C   UNL     1      24.786   0.224 -10.600  0.00  0.00    +0.300 C 
ATOM      3  O   UNL     1      25.000  -0.539 -11.582  0.00  0.00    -0.253 OA
ATOM      4  N   UNL     1      23.641   0.017  -9.767  0.00  0.00    -0.299 N 
ATOM      5  H   UNL     1      25.429   1.968  -9.548  0.00  0.00    +0.151 HD
ATOM      6  H   UNL     1      23.485   0.675  -8.973  0.00  0.00    +0.150 HD
ENDROOT
BRANCH   1   7
ATOM      7  C   UNL     1      26.823   1.643 -11.178  0.00  0.00    +0.081 C 
BRANCH   7   9
ATOM      8  C   UNL     1      26.522   0.962 -13.615  0.00  0.00    +0.009 C 
ATOM      9  C   UNL     1      26.300   2.079 -12.579  0.00  0.00    +0.003 C 
ATOM     10  C   UNL     1      24.809   2.453 -12.557  0.00  0.00    +0.009 C 
ENDBRANCH   7   9
BRANCH   7  11
ATOM     11  C   UNL     1      27.772   0.416 -11.230  0.00  0.00    +0.057 C 
BRANCH  11  12
ATOM     12  C   UNL     1      27.801  -0.378  -9.943  0.00  0.00    -0.045 A 
ATOM     13  C   UNL     1      27.485  -1.749  -9.944  0.00  0.00    +0.006 A 
ATOM     14  C   UNL     1      27.485  -2.473  -8.748  0.00  0.00    +0.038 A 
ATOM     15  C   UNL     1      27.778  -1.834  -7.540  0.00  0.00    +0.123 A 
ATOM     16  F   UNL     1      27.775  -2.537  -6.381  0.00  0.00    -0.205 F 
ATOM     17  C   UNL     1      28.063  -0.466  -7.525  0.00  0.00    +0.038 A 
ATOM     18  C   UNL     1      28.065   0.262  -8.720  0.00  0.00    +0.006 A 
ENDBRANCH  11  12
ENDBRANCH   7  11
ENDBRANCH   1   7
BRANCH   4  19
ATOM     19  C   UNL     1      22.685  -1.060 -10.034  0.00  0.00    +0.110 C 
BRANCH  19  20
ATOM     20  C   UNL     1      21.960  -0.867 -11.377  0.00  0.00    +0.056 C 
BRANCH  20  21
ATOM     21  C   UNL     1      20.535  -1.394 -11.358  0.00  0.00    -0.021 A 
ATOM     22  C   UNL     1      20.338  -2.761 -11.632  0.00  0.00    +0.005 A 
ATOM     23  C   UNL     1      19.056  -3.305 -11.678  0.00  0.00    +0.000 A 
ATOM     24  C   UNL     1      17.947  -2.498 -11.443  0.00  0.00    +0.002 A 
ATOM     25  C   UNL     1      18.118  -1.148 -11.138  0.00  0.00    +0.027 A 
ATOM     26  C   UNL     1      19.402  -0.578 -11.074  0.00  0.00    +0.091 A 
BRANCH  26  27
ATOM     27  S   UNL     1      19.525   1.127 -10.589  0.00  0.00    -0.006 S 
ATOM     28  C   UNL     1      18.762   1.402  -9.003  0.00  0.00    +0.200 C 
ATOM     29  O   UNL     1      20.973   1.519 -10.477  0.00  0.00    -0.170 OA
ATOM     30  O   UNL     1      18.888   2.006 -11.629  0.00  0.00    -0.170 OA
ENDBRANCH  26  27
ENDBRANCH  20  21
ENDBRANCH  19  20
ENDBRANCH   4  19
TORSDOF 8
