REMARK  Name = 
REMARK  7 active torsions:
REMARK  status: ('A' for Active; 'I' for Inactive)
REMARK    1  A    between atoms: C_1  and  C_2
REMARK    2  A    between atoms: C_7  and  C_8
REMARK    3  A    between atoms: C_8  and  C_9
REMARK    4  A    between atoms: C_14  and  C_16
REMARK    5  A    between atoms: C_19  and  S_20
REMARK    6  A    between atoms: S_20  and  C_21
REMARK    7  A    between atoms: C_24  and  N_25
REMARK                            x       y       z     vdW  Elec       q    Type
REMARK                         _______ _______ _______ _____ _____    ______ ____
ROOT
ATOM      1  C   UNL     1      26.461   1.045 -11.254  0.00  0.00    +0.081 C 
ATOM      2  C   UNL     1      26.717   1.885 -12.508  0.00  0.00    +0.024 C 
ATOM      3  C   UNL     1      25.782   1.321 -13.570  0.00  0.00    +0.021 C 
ATOM      4  C   UNL     1      24.624   0.705 -12.798  0.00  0.00    +0.108 C 
ATOM      5  N   UNL     1      25.113   0.517 -11.440  0.00  0.00    -0.294 N 
ATOM      6  C   UNL     1      24.350  -0.112 -10.389  0.00  0.00    +0.247 C 
ATOM      7  O   UNL     1      24.872  -0.290  -9.255  0.00  0.00    -0.270 OA
ENDROOT
BRANCH   6   8
ATOM      8  C   UNL     1      22.973  -0.587 -10.610  0.00  0.00    +0.039 A 
ATOM      9  C   UNL     1      22.745  -1.929 -10.930  0.00  0.00    +0.015 A 
ATOM     10  C   UNL     1      21.444  -2.394 -11.126  0.00  0.00    +0.030 A 
ATOM     11  C   UNL     1      20.346  -1.530 -10.996  0.00  0.00    +0.118 A 
ATOM     12  C   UNL     1      20.570  -0.166 -10.681  0.00  0.00    +0.152 A 
ATOM     13  C   UNL     1      21.884   0.282 -10.467  0.00  0.00    +0.047 A 
BRANCH  11  14
ATOM     14  S   UNL     1      18.723  -2.218 -11.171  0.00  0.00    -0.004 S 
ATOM     15  C   UNL     1      18.745  -3.518 -12.388  0.00  0.00    +0.200 C 
ATOM     16  O   UNL     1      18.280  -2.797  -9.856  0.00  0.00    -0.170 OA
ATOM     17  O   UNL     1      17.737  -1.157 -11.570  0.00  0.00    -0.170 OA
ENDBRANCH  11  14
BRANCH  12  18
ATOM     18  N   UNL     1      19.494   0.778 -10.573  0.00  0.00    +0.058 N 
ATOM     19  O   UNL     1      19.108   1.408 -11.578  0.00  0.00    -0.126 OA
ATOM     20  O   UNL     1      19.066   1.187  -9.331  0.00  0.00    -0.126 OA
ENDBRANCH  12  18
ENDBRANCH   6   8
BRANCH   1  21
ATOM     21  C   UNL     1      27.473  -0.118 -11.109  0.00  0.00    +0.058 C 
BRANCH  21  28
ATOM     22  C   UNL     1      28.116   1.744  -8.809  0.00  0.00    +0.044 C 
ATOM     23  C   UNL     1      27.922   0.263  -8.605  0.00  0.00    -0.047 A 
ATOM     24  C   UNL     1      28.037  -0.262  -7.304  0.00  0.00    +0.003 A 
ATOM     25  C   UNL     1      27.824  -1.619  -7.062  0.00  0.00    +0.000 A 
ATOM     26  C   UNL     1      27.483  -2.470  -8.111  0.00  0.00    +0.000 A 
ATOM     27  C   UNL     1      27.364  -1.970  -9.408  0.00  0.00    +0.004 A 
ATOM     28  C   UNL     1      27.590  -0.607  -9.678  0.00  0.00    -0.043 A 
ENDBRANCH  21  28
ENDBRANCH   1  21
TORSDOF 5
