REMARK  Name = 
REMARK  7 active torsions:
REMARK  status: ('A' for Active; 'I' for Inactive)
REMARK    1  A    between atoms: C_1  and  S_2
REMARK    2  A    between atoms: S_2  and  C_5
REMARK    3  A    between atoms: C_7  and  N_8
REMARK    4  A    between atoms: N_8  and  C_9
REMARK    5  A    between atoms: C_9  and  C_10
REMARK    6  A    between atoms: C_9  and  C_16
REMARK    7  A    between atoms: C_25  and  N_26
REMARK                            x       y       z     vdW  Elec       q    Type
REMARK                         _______ _______ _______ _____ _____    ______ ____
ROOT
ATOM      1  N   UNL     1      23.980  -0.032  -9.826  0.00  0.00    -0.333 N 
ATOM      2  H   UNL     1      23.962   0.821  -9.220  0.00  0.00    +0.147 HD
ENDROOT
BRANCH   1   5
ATOM      3  C   UNL     1      20.306  -0.286 -10.551  0.00  0.00    +0.120 A 
ATOM      4  C   UNL     1      21.565   0.214 -10.181  0.00  0.00    +0.052 A 
ATOM      5  C   UNL     1      22.709  -0.596 -10.212  0.00  0.00    +0.030 A 
ATOM      6  C   UNL     1      22.580  -1.936 -10.614  0.00  0.00    +0.025 A 
ATOM      7  C   UNL     1      21.339  -2.442 -10.997  0.00  0.00    +0.036 A 
ATOM      8  C   UNL     1      20.196  -1.628 -10.992  0.00  0.00    +0.151 A 
BRANCH   3  10
ATOM      9  C   UNL     1      19.452   2.456 -10.098  0.00  0.00    +0.200 C 
ATOM     10  S   UNL     1      18.906   0.787 -10.388  0.00  0.00    -0.004 S 
ATOM     11  O   UNL     1      18.070   0.342  -9.222  0.00  0.00    -0.170 OA
ATOM     12  O   UNL     1      18.050   0.734 -11.623  0.00  0.00    -0.170 OA
ENDBRANCH   3  10
BRANCH   8  13
ATOM     13  N   UNL     1      18.951  -2.183 -11.443  0.00  0.00    +0.058 N 
ATOM     14  O   UNL     1      18.936  -3.029 -12.360  0.00  0.00    -0.126 OA
ATOM     15  O   UNL     1      17.810  -1.992 -10.699  0.00  0.00    -0.126 OA
ENDBRANCH   8  13
ENDBRANCH   1   5
BRANCH   1  16
ATOM     16  C   UNL     1      25.285  -0.573 -10.238  0.00  0.00    +0.131 C 
BRANCH  16  17
ATOM     17  C   UNL     1      26.313  -0.421  -9.134  0.00  0.00    -0.020 A 
ATOM     18  C   UNL     1      26.860   0.840  -8.819  0.00  0.00    +0.006 A 
ATOM     19  C   UNL     1      27.822   0.963  -7.813  0.00  0.00    +0.003 A 
ATOM     20  C   UNL     1      28.255  -0.166  -7.114  0.00  0.00    +0.038 A 
ATOM     21  C   UNL     1      27.727  -1.423  -7.420  0.00  0.00    +0.124 A 
ATOM     22  F   UNL     1      28.151  -2.519  -6.745  0.00  0.00    -0.205 F 
ATOM     23  C   UNL     1      26.762  -1.552  -8.426  0.00  0.00    +0.044 A 
ENDBRANCH  16  17
BRANCH  16  24
ATOM     24  C   UNL     1      25.790   0.089 -11.507  0.00  0.00    -0.023 A 
ATOM     25  C   UNL     1      27.135  -0.024 -11.913  0.00  0.00    +0.006 A 
ATOM     26  C   UNL     1      27.567   0.573 -13.101  0.00  0.00    +0.000 A 
ATOM     27  C   UNL     1      26.663   1.275 -13.902  0.00  0.00    +0.000 A 
ATOM     28  C   UNL     1      25.324   1.378 -13.518  0.00  0.00    +0.000 A 
ATOM     29  C   UNL     1      24.887   0.785 -12.330  0.00  0.00    +0.006 A 
ENDBRANCH  16  24
ENDBRANCH   1  16
TORSDOF 6
