REMARK  Name = 
REMARK  8 active torsions:
REMARK  status: ('A' for Active; 'I' for Inactive)
REMARK    1  A    between atoms: C_1  and  C_2
REMARK    2  A    between atoms: C_5  and  C_6
REMARK    3  A    between atoms: N_8  and  C_9
REMARK    4  A    between atoms: C_14  and  C_15
REMARK    5  A    between atoms: C_15  and  O_16
REMARK    6  A    between atoms: O_16  and  C_17
REMARK    7  A    between atoms: C_24  and  S_25
REMARK    8  A    between atoms: S_25  and  C_26
REMARK                            x       y       z     vdW  Elec       q    Type
REMARK                         _______ _______ _______ _____ _____    ______ ____
ROOT
ATOM      1  C   UNL     1      24.355  -0.565 -10.289  0.00  0.00    +0.248 C 
ATOM      2  O   UNL     1      25.205  -0.892 -11.163  0.00  0.00    -0.270 OA
ATOM      3  N   UNL     1      24.790   0.084  -9.084  0.00  0.00    -0.281 N 
ATOM      4  H   UNL     1      24.120   0.712  -8.586  0.00  0.00    +0.155 HD
ENDROOT
BRANCH   1   9
ATOM      5  C   UNL     1      18.733  -1.710 -11.227  0.00  0.00    +0.046 C 
ATOM      6  C   UNL     1      20.182  -1.362 -11.005  0.00  0.00    -0.026 A 
ATOM      7  C   UNL     1      21.140  -2.380 -11.135  0.00  0.00    +0.006 A 
ATOM      8  C   UNL     1      22.491  -2.125 -10.907  0.00  0.00    +0.013 A 
ATOM      9  C   UNL     1      22.918  -0.846 -10.524  0.00  0.00    +0.039 A 
ATOM     10  C   UNL     1      21.966   0.177 -10.388  0.00  0.00    +0.040 A 
ATOM     11  C   UNL     1      20.599  -0.064 -10.614  0.00  0.00    +0.091 A 
BRANCH  11  12
ATOM     12  S   UNL     1      19.455   1.277 -10.401  0.00  0.00    -0.006 S 
ATOM     13  C   UNL     1      18.640   1.173  -8.821  0.00  0.00    +0.200 C 
ATOM     14  O   UNL     1      18.437   1.260 -11.507  0.00  0.00    -0.170 OA
ATOM     15  O   UNL     1      20.189   2.589 -10.454  0.00  0.00    -0.170 OA
ENDBRANCH  11  12
ENDBRANCH   1   9
BRANCH   3  16
ATOM     16  C   UNL     1      26.176   0.164  -8.717  0.00  0.00    +0.040 A 
ATOM     17  C   UNL     1      26.836  -1.011  -8.330  0.00  0.00    +0.024 A 
ATOM     18  C   UNL     1      28.175  -0.975  -7.935  0.00  0.00    +0.002 A 
ATOM     19  C   UNL     1      28.868   0.233  -7.927  0.00  0.00    +0.000 A 
ATOM     20  C   UNL     1      28.233   1.408  -8.335  0.00  0.00    +0.009 A 
ATOM     21  C   UNL     1      26.892   1.387  -8.761  0.00  0.00    +0.011 A 
BRANCH  21  22
ATOM     22  C   UNL     1      26.268   2.671  -9.260  0.00  0.00    +0.266 C 
BRANCH  22  23
ATOM     23  O   UNL     1      26.636   2.920 -10.618  0.00  0.00    -0.487 OA
BRANCH  23  24
ATOM     24  C   UNL     1      26.457   2.019 -11.681  0.00  0.00    +0.121 A 
ATOM     25  C   UNL     1      27.429   1.064 -12.041  0.00  0.00    +0.045 A 
ATOM     26  C   UNL     1      27.198   0.194 -13.112  0.00  0.00    +0.004 A 
ATOM     27  C   UNL     1      26.001   0.267 -13.828  0.00  0.00    +0.000 A 
ATOM     28  C   UNL     1      25.031   1.208 -13.475  0.00  0.00    +0.004 A 
ATOM     29  C   UNL     1      25.259   2.080 -12.405  0.00  0.00    +0.045 A 
ENDBRANCH  23  24
ENDBRANCH  22  23
ENDBRANCH  21  22
ENDBRANCH   3  16
TORSDOF 6
