REMARK  Name = 
REMARK  7 active torsions:
REMARK  status: ('A' for Active; 'I' for Inactive)
REMARK    1  A    between atoms: C_1  and  N_2
REMARK    2  A    between atoms: N_2  and  C_3
REMARK    3  A    between atoms: N_2  and  S_4
REMARK    4  A    between atoms: S_4  and  C_7
REMARK    5  A    between atoms: C_12  and  N_13
REMARK    6  A    between atoms: N_16  and  C_17
REMARK    7  A    between atoms: C_19  and  C_20
REMARK                            x       y       z     vdW  Elec       q    Type
REMARK                         _______ _______ _______ _____ _____    ______ ____
ROOT
ATOM      1  N   UNL     1      23.994   0.128 -10.374  0.00  0.00    -0.268 N 
ATOM      2  C   UNL     1      22.984  -0.794 -10.805  0.00  0.00    +0.304 C 
ATOM      3  O   UNL     1      23.023  -1.283 -11.967  0.00  0.00    -0.252 OA
ATOM      4  N   UNL     1      21.925  -1.154  -9.911  0.00  0.00    -0.296 N 
ATOM      5  H   UNL     1      23.843   0.642  -9.478  0.00  0.00    +0.156 HD
ATOM      6  H   UNL     1      21.873  -0.679  -8.981  0.00  0.00    +0.151 HD
ENDROOT
BRANCH   1  12
ATOM      7  C   UNL     1      26.478   0.079 -10.475  0.00  0.00    +0.127 A 
ATOM      8  C   UNL     1      27.651   0.219 -11.232  0.00  0.00    +0.030 A 
ATOM      9  C   UNL     1      27.593   0.608 -12.571  0.00  0.00    +0.002 A 
ATOM     10  C   UNL     1      26.361   0.857 -13.173  0.00  0.00    +0.002 A 
ATOM     11  C   UNL     1      25.184   0.714 -12.438  0.00  0.00    +0.025 A 
ATOM     12  C   UNL     1      25.224   0.328 -11.086  0.00  0.00    +0.061 A 
BRANCH   7  13
ATOM     13  S   UNL     1      26.644  -0.378  -8.770  0.00  0.00    +0.062 S 
ATOM     14  O   UNL     1      25.269  -0.421  -8.163  0.00  0.00    -0.153 OA
ATOM     15  O   UNL     1      27.253  -1.747  -8.631  0.00  0.00    -0.153 OA
BRANCH  13  17
ATOM     16  C   UNL     1      27.210   2.158  -8.333  0.00  0.00    +0.131 C 
ATOM     17  N   UNL     1      27.610   0.806  -7.926  0.00  0.00    -0.183 NA
ATOM     18  C   UNL     1      29.029   0.588  -8.236  0.00  0.00    +0.131 C 
ENDBRANCH  13  17
ENDBRANCH   7  13
ENDBRANCH   1  12
BRANCH   4  19
ATOM     19  C   UNL     1      20.961  -2.200 -10.260  0.00  0.00    +0.083 C 
ATOM     20  C   UNL     1      20.417  -2.070 -11.676  0.00  0.00    +0.033 C 
ATOM     21  C   UNL     1      19.520  -1.734 -10.484  0.00  0.00    +0.041 C 
BRANCH  21  22
ATOM     22  C   UNL     1      19.237  -0.270 -10.250  0.00  0.00    -0.040 A 
ATOM     23  C   UNL     1      19.360   0.638 -11.315  0.00  0.00    +0.004 A 
ATOM     24  C   UNL     1      19.127   2.001 -11.112  0.00  0.00    +0.003 A 
ATOM     25  C   UNL     1      18.799   2.473  -9.838  0.00  0.00    +0.038 A 
ATOM     26  C   UNL     1      18.715   1.583  -8.763  0.00  0.00    +0.124 A 
ATOM     27  F   UNL     1      18.418   2.044  -7.524  0.00  0.00    -0.205 F 
ATOM     28  C   UNL     1      18.945   0.217  -8.964  0.00  0.00    +0.042 A 
ENDBRANCH  21  22
ENDBRANCH   4  19
TORSDOF 5
