REMARK  Name = 
REMARK  6 active torsions:
REMARK  status: ('A' for Active; 'I' for Inactive)
REMARK    1  A    between atoms: C_2  and  C_3
REMARK    2  A    between atoms: C_9  and  S_10
REMARK    3  A    between atoms: S_10  and  N_13
REMARK    4  A    between atoms: N_13  and  C_14
REMARK    5  A    between atoms: C_14  and  C_15
REMARK    6  A    between atoms: C_20  and  C_21
REMARK                            x       y       z     vdW  Elec       q    Type
REMARK                         _______ _______ _______ _____ _____    ______ ____
ROOT
ATOM      1  N   UNL     1      23.277  -1.055  -9.362  0.00  0.00    -0.190 NA
ATOM      2  H   UNL     1      22.730  -1.890  -9.064  0.00  0.00    +0.148 HD
ENDROOT
BRANCH   1   3
ATOM      3  S   UNL     1      22.516  -0.516 -10.828  0.00  0.00    +0.060 S 
ATOM      4  O   UNL     1      22.416   0.984 -10.800  0.00  0.00    -0.153 OA
ATOM      5  O   UNL     1      23.351  -0.903 -12.017  0.00  0.00    -0.153 OA
BRANCH   3  12
ATOM      6  C   UNL     1      19.709  -0.423 -10.749  0.00  0.00    +0.081 A 
ATOM      7  C   UNL     1      18.449  -1.019 -10.902  0.00  0.00    +0.059 A 
ATOM      8  C   UNL     1      18.343  -2.370 -11.239  0.00  0.00    +0.125 A 
ATOM      9  F   UNL     1      17.120  -2.936 -11.392  0.00  0.00    -0.205 F 
ATOM     10  C   UNL     1      19.493  -3.135 -11.431  0.00  0.00    +0.040 A 
ATOM     11  C   UNL     1      20.753  -2.552 -11.282  0.00  0.00    +0.032 A 
ATOM     12  C   UNL     1      20.881  -1.198 -10.933  0.00  0.00    +0.123 A 
BRANCH   6  14
ATOM     13  N   UNL     1      19.800   2.111 -10.179  0.00  0.00    -0.191 NA
ATOM     14  C   UNL     1      19.762   0.983 -10.431  0.00  0.00    +0.101 C 
ENDBRANCH   6  14
ENDBRANCH   3  12
ENDBRANCH   1   3
BRANCH   1  15
ATOM     15  C   UNL     1      24.660  -1.458  -9.648  0.00  0.00    +0.110 C 
BRANCH  15  16
ATOM     16  C   UNL     1      25.704  -0.443  -9.123  0.00  0.00    +0.012 C 
ATOM     17  C   UNL     1      26.228  -0.825  -7.727  0.00  0.00    +0.005 C 
ATOM     18  C   UNL     1      27.131   0.271  -7.119  0.00  0.00    +0.000 C 
ATOM     19  C   UNL     1      27.640   1.302  -8.143  0.00  0.00    +0.001 C 
ATOM     20  C   UNL     1      28.039   0.640  -9.468  0.00  0.00    +0.008 C 
ATOM     21  C   UNL     1      26.898  -0.215 -10.099  0.00  0.00    +0.023 C 
BRANCH  21  22
ATOM     22  C   UNL     1      26.419   0.364 -11.419  0.00  0.00    -0.044 A 
ATOM     23  C   UNL     1      26.826  -0.221 -12.634  0.00  0.00    +0.004 A 
ATOM     24  C   UNL     1      26.340   0.265 -13.851  0.00  0.00    +0.000 A 
ATOM     25  C   UNL     1      25.442   1.333 -13.871  0.00  0.00    +0.000 A 
ATOM     26  C   UNL     1      25.026   1.919 -12.673  0.00  0.00    +0.000 A 
ATOM     27  C   UNL     1      25.507   1.436 -11.453  0.00  0.00    +0.004 A 
ENDBRANCH  21  22
ENDBRANCH  15  16
ENDBRANCH   1  15
TORSDOF 6
