REMARK  Name = 
REMARK  5 active torsions:
REMARK  status: ('A' for Active; 'I' for Inactive)
REMARK    1  A    between atoms: C_2  and  C_3
REMARK    2  A    between atoms: C_9  and  C_10
REMARK    3  A    between atoms: C_10  and  S_11
REMARK    4  A    between atoms: S_11  and  N_14
REMARK    5  A    between atoms: N_14  and  C_15
REMARK                            x       y       z     vdW  Elec       q    Type
REMARK                         _______ _______ _______ _____ _____    ______ ____
ROOT
ATOM      1  S   UNL     1      23.157  -0.815 -10.281  0.00  0.00    +0.034 S 
ATOM      2  O   UNL     1      23.126  -1.262 -11.716  0.00  0.00    -0.158 OA
ATOM      3  O   UNL     1      23.412  -2.008  -9.403  0.00  0.00    -0.158 OA
ENDROOT
BRANCH   1   4
ATOM      4  N   UNL     1      24.427   0.350 -10.034  0.00  0.00    -0.191 NA
ATOM      5  H   UNL     1      24.449   0.587  -9.018  0.00  0.00    +0.148 HD
BRANCH   4   6
ATOM      6  C   UNL     1      25.737  -0.145 -10.513  0.00  0.00    +0.082 C 
ATOM      7  C   UNL     1      26.726  -0.389  -9.342  0.00  0.00    +0.021 C 
ATOM      8  C   UNL     1      27.246   0.910  -8.707  0.00  0.00    +0.002 C 
ATOM      9  C   UNL     1      27.837   1.852  -9.756  0.00  0.00    +0.001 C 
ATOM     10  C   UNL     1      26.831   2.137 -10.880  0.00  0.00    +0.008 C 
ATOM     11  C   UNL     1      26.330   0.838 -11.577  0.00  0.00    -0.012 C 
ATOM     12  C   UNL     1      25.262   1.203 -12.639  0.00  0.00    +0.008 C 
ATOM     13  C   UNL     1      25.982   1.247 -13.970  0.00  0.00    +0.001 C 
ATOM     14  C   UNL     1      27.048   0.180 -13.861  0.00  0.00    +0.001 C 
ATOM     15  C   UNL     1      27.475   0.173 -12.399  0.00  0.00    +0.008 C 
ENDBRANCH   4   6
ENDBRANCH   1   4
BRANCH   1  16
ATOM     16  C   UNL     1      21.584  -0.092  -9.833  0.00  0.00    +0.221 C 
BRANCH  16  23
ATOM     17  C   UNL     1      19.158  -0.337 -10.600  0.00  0.00    +0.059 A 
ATOM     18  C   UNL     1      18.141  -1.111 -11.179  0.00  0.00    +0.057 A 
ATOM     19  C   UNL     1      18.397  -2.422 -11.586  0.00  0.00    +0.125 A 
ATOM     20  F   UNL     1      17.409  -3.163 -12.145  0.00  0.00    -0.205 F 
ATOM     21  C   UNL     1      19.670  -2.969 -11.422  0.00  0.00    +0.039 A 
ATOM     22  C   UNL     1      20.692  -2.209 -10.847  0.00  0.00    +0.009 A 
ATOM     23  C   UNL     1      20.448  -0.891 -10.421  0.00  0.00    -0.007 A 
BRANCH  17  25
ATOM     24  N   UNL     1      18.615   2.105  -9.889  0.00  0.00    -0.191 NA
ATOM     25  C   UNL     1      18.856   1.018 -10.206  0.00  0.00    +0.100 C 
ENDBRANCH  17  25
ENDBRANCH  16  23
ENDBRANCH   1  16
TORSDOF 5
