REMARK  Name = 
REMARK  8 active torsions:
REMARK  status: ('A' for Active; 'I' for Inactive)
REMARK    1  A    between atoms: C_2  and  C_3
REMARK    2  A    between atoms: C_9  and  C_10
REMARK    3  A    between atoms: C_10  and  S_11
REMARK    4  A    between atoms: S_11  and  N_14
REMARK    5  A    between atoms: N_14  and  C_15
REMARK    6  A    between atoms: C_15  and  C_16
REMARK    7  A    between atoms: N_20  and  C_21
REMARK    8  A    between atoms: C_21  and  C_22
REMARK                            x       y       z     vdW  Elec       q    Type
REMARK                         _______ _______ _______ _____ _____    ______ ____
ROOT
ATOM      1  S   UNL     1      23.578  -0.660 -10.505  0.00  0.00    +0.034 S 
ATOM      2  O   UNL     1      23.603  -0.876 -11.992  0.00  0.00    -0.158 OA
ATOM      3  O   UNL     1      23.644  -1.995  -9.815  0.00  0.00    -0.158 OA
ENDROOT
BRANCH   1   4
ATOM      4  N   UNL     1      24.941   0.319 -10.052  0.00  0.00    -0.194 NA
ATOM      5  H   UNL     1      24.630   0.935  -9.266  0.00  0.00    +0.148 HD
BRANCH   4   6
ATOM      6  C   UNL     1      25.340   1.176 -11.174  0.00  0.00    +0.110 C 
BRANCH   6   7
ATOM      7  C   UNL     1      26.769   1.716 -10.959  0.00  0.00    +0.019 C 
ATOM      8  C   UNL     1      26.785   3.204 -10.541  0.00  0.00    +0.007 C 
ATOM      9  C   UNL     1      26.311   3.406  -9.094  0.00  0.00    +0.016 C 
ATOM     10  C   UNL     1      27.070   2.480  -8.137  0.00  0.00    +0.084 C 
ATOM     11  N   UNL     1      26.933   1.077  -8.574  0.00  0.00    -0.302 NA
ATOM     12  C   UNL     1      27.523   0.874  -9.912  0.00  0.00    +0.089 C 
BRANCH  11  13
ATOM     13  C   UNL     1      27.446   0.120  -7.571  0.00  0.00    +0.088 C 
BRANCH  13  14
ATOM     14  C   UNL     1      26.923  -1.319  -7.771  0.00  0.00    +0.003 C 
ATOM     15  C   UNL     1      27.775  -2.236  -8.638  0.00  0.00    +0.005 C 
ATOM     16  C   UNL     1      27.795  -2.387  -7.126  0.00  0.00    +0.005 C 
ENDBRANCH  13  14
ENDBRANCH  11  13
ENDBRANCH   6   7
ENDBRANCH   4   6
ENDBRANCH   1   4
BRANCH   1  17
ATOM     17  C   UNL     1      22.066   0.189 -10.068  0.00  0.00    +0.221 C 
BRANCH  17  24
ATOM     18  C   UNL     1      19.554  -0.083 -10.467  0.00  0.00    +0.059 A 
ATOM     19  C   UNL     1      18.465  -0.886 -10.835  0.00  0.00    +0.057 A 
ATOM     20  C   UNL     1      18.663  -2.215 -11.216  0.00  0.00    +0.125 A 
ATOM     21  F   UNL     1      17.604  -2.986 -11.569  0.00  0.00    -0.205 F 
ATOM     22  C   UNL     1      19.951  -2.755 -11.228  0.00  0.00    +0.039 A 
ATOM     23  C   UNL     1      21.044  -1.966 -10.861  0.00  0.00    +0.009 A 
ATOM     24  C   UNL     1      20.864  -0.622 -10.488  0.00  0.00    -0.007 A 
BRANCH  18  26
ATOM     25  N   UNL     1      19.108   2.379  -9.755  0.00  0.00    -0.191 NA
ATOM     26  C   UNL     1      19.305   1.283 -10.072  0.00  0.00    +0.100 C 
ENDBRANCH  18  26
ENDBRANCH  17  24
ENDBRANCH   1  17
TORSDOF 8
