REMARK  Name = 
REMARK  7 active torsions:
REMARK  status: ('A' for Active; 'I' for Inactive)
REMARK    1  A    between atoms: C_1  and  S_2
REMARK    2  A    between atoms: S_2  and  C_5
REMARK    3  A    between atoms: C_10  and  S_11
REMARK    4  A    between atoms: S_11  and  N_14
REMARK    5  A    between atoms: N_14  and  C_15
REMARK    6  A    between atoms: C_15  and  C_16
REMARK    7  A    between atoms: C_15  and  C_23
REMARK                            x       y       z     vdW  Elec       q    Type
REMARK                         _______ _______ _______ _____ _____    ______ ____
ROOT
ATOM      1  N   UNL     1      23.748   0.191 -10.442  0.00  0.00    -0.178 NA
ATOM      2  H   UNL     1      23.694   0.546  -9.461  0.00  0.00    +0.149 HD
ENDROOT
BRANCH   1   3
ATOM      3  S   UNL     1      22.433  -0.927 -10.677  0.00  0.00    +0.061 S 
ATOM      4  O   UNL     1      22.436  -1.919  -9.549  0.00  0.00    -0.153 OA
ATOM      5  O   UNL     1      22.652  -1.656 -11.971  0.00  0.00    -0.153 OA
BRANCH   3  11
ATOM      6  C   UNL     1      19.620  -0.679 -10.873  0.00  0.00    +0.114 A 
ATOM      7  C   UNL     1      18.461   0.120 -10.909  0.00  0.00    +0.029 A 
ATOM      8  C   UNL     1      18.535   1.497 -10.707  0.00  0.00    +0.002 A 
ATOM      9  C   UNL     1      19.765   2.100 -10.469  0.00  0.00    +0.002 A 
ATOM     10  C   UNL     1      20.927   1.331 -10.448  0.00  0.00    +0.030 A 
ATOM     11  C   UNL     1      20.884  -0.056 -10.672  0.00  0.00    +0.130 A 
BRANCH   6  13
ATOM     12  C   UNL     1      17.806  -2.753 -11.803  0.00  0.00    +0.200 C 
ATOM     13  S   UNL     1      19.398  -2.427 -11.075  0.00  0.00    -0.004 S 
ATOM     14  O   UNL     1      20.493  -3.021 -11.915  0.00  0.00    -0.170 OA
ATOM     15  O   UNL     1      19.446  -3.090  -9.726  0.00  0.00    -0.170 OA
ENDBRANCH   6  13
ENDBRANCH   3  11
ENDBRANCH   1   3
BRANCH   1  16
ATOM     16  C   UNL     1      25.052  -0.447 -10.698  0.00  0.00    +0.143 C 
BRANCH  16  17
ATOM     17  C   UNL     1      25.978  -0.380  -9.495  0.00  0.00    -0.024 A 
ATOM     18  C   UNL     1      26.383   0.871  -8.991  0.00  0.00    +0.008 A 
ATOM     19  C   UNL     1      27.243   0.947  -7.892  0.00  0.00    +0.038 A 
ATOM     20  C   UNL     1      27.703  -0.221  -7.280  0.00  0.00    +0.123 A 
ATOM     21  F   UNL     1      28.540  -0.145  -6.217  0.00  0.00    -0.205 F 
ATOM     22  C   UNL     1      27.301  -1.468  -7.766  0.00  0.00    +0.038 A 
ATOM     23  C   UNL     1      26.442  -1.550  -8.866  0.00  0.00    +0.008 A 
ENDBRANCH  16  17
BRANCH  16  24
ATOM     24  C   UNL     1      25.709   0.182 -11.895  0.00  0.00    +0.013 A 
ATOM     25  C   UNL     1      25.050   0.895 -12.888  0.00  0.00    +0.013 A 
ATOM     26  C   UNL     1      25.895   1.319 -13.921  0.00  0.00    +0.008 A 
ATOM     27  C   UNL     1      27.219   0.935 -13.752  0.00  0.00    +0.045 A 
ATOM     28  S   UNL     1      27.335   0.064 -12.320  0.00  0.00    -0.100 S 
ENDBRANCH  16  24
ENDBRANCH   1  16
TORSDOF 6
