REMARK  Name = 
REMARK  13 active torsions:
REMARK  status: ('A' for Active; 'I' for Inactive)
REMARK    1  A    between atoms: C_1  and  C_2
REMARK    2  A    between atoms: C_4  and  S_5
REMARK    3  A    between atoms: S_5  and  C_6
REMARK    4  A    between atoms: C_9  and  C_10
REMARK    5  A    between atoms: C_11  and  S_12
REMARK    6  A    between atoms: S_12  and  N_15
REMARK    7  A    between atoms: N_15  and  C_16
REMARK    8  A    between atoms: C_16  and  C_17
REMARK    9  A    between atoms: C_17  and  C_18
REMARK   10  A    between atoms: C_17  and  C_22
REMARK   11  A    between atoms: C_18  and  C_19
REMARK   12  A    between atoms: C_19  and  C_20
REMARK   13  A    between atoms: C_19  and  O_21
REMARK                            x       y       z     vdW  Elec       q    Type
REMARK                         _______ _______ _______ _____ _____    ______ ____
ROOT
ATOM      1  S   UNL     1      25.321   0.346 -12.889  0.00  0.00    +0.059 S 
ATOM      2  O   UNL     1      24.750   1.474 -13.701  0.00  0.00    -0.153 OA
ATOM      3  O   UNL     1      26.251  -0.457 -13.755  0.00  0.00    -0.153 OA
ENDROOT
BRANCH   1  10
ATOM      4  C   UNL     1      26.295   4.371  -9.671  0.00  0.00    +0.044 C 
ATOM      5  C   UNL     1      26.602   2.953 -10.054  0.00  0.00    -0.047 A 
ATOM      6  C   UNL     1      27.447   2.178  -9.257  0.00  0.00    +0.030 A 
ATOM      7  C   UNL     1      27.730   0.845  -9.588  0.00  0.00    +0.093 A 
ATOM      8  C   UNL     1      27.164   0.280 -10.766  0.00  0.00    +0.001 A 
ATOM      9  C   UNL     1      27.555  -1.111 -11.213  0.00  0.00    +0.048 C 
ATOM     10  C   UNL     1      26.211   1.035 -11.506  0.00  0.00    +0.110 A 
ATOM     11  C   UNL     1      25.975   2.373 -11.158  0.00  0.00    +0.032 A 
BRANCH   7  12
ATOM     12  S   UNL     1      28.791  -0.089  -8.509  0.00  0.00    -0.006 S 
ATOM     13  C   UNL     1      28.174  -0.158  -6.837  0.00  0.00    +0.200 C 
ATOM     14  O   UNL     1      28.893  -1.504  -9.006  0.00  0.00    -0.170 OA
ATOM     15  O   UNL     1      30.156   0.537  -8.488  0.00  0.00    -0.170 OA
ENDBRANCH   7  12
ENDBRANCH   1  10
BRANCH   1  16
ATOM     16  N   UNL     1      24.017  -0.700 -12.401  0.00  0.00    -0.189 NA
ATOM     17  H   UNL     1      23.721  -1.271 -13.225  0.00  0.00    +0.148 HD
BRANCH  16  18
ATOM     18  C   UNL     1      22.881   0.092 -11.916  0.00  0.00    +0.114 C 
BRANCH  18  19
ATOM     19  C   UNL     1      22.335  -0.498 -10.600  0.00  0.00    +0.037 C 
BRANCH  19  20
ATOM     20  C   UNL     1      20.986  -1.166 -10.821  0.00  0.00    -0.043 A 
ATOM     21  C   UNL     1      19.816  -0.563 -10.326  0.00  0.00    +0.004 A 
ATOM     22  C   UNL     1      18.571  -1.169 -10.520  0.00  0.00    +0.000 A 
ATOM     23  C   UNL     1      18.480  -2.380 -11.211  0.00  0.00    +0.000 A 
ATOM     24  C   UNL     1      19.635  -2.988 -11.708  0.00  0.00    +0.000 A 
ATOM     25  C   UNL     1      20.883  -2.387 -11.516  0.00  0.00    +0.004 A 
ENDBRANCH  19  20
BRANCH  19  26
ATOM     26  C   UNL     1      23.362  -1.470  -9.974  0.00  0.00    +0.040 C 
BRANCH  26  27
ATOM     27  C   UNL     1      23.838  -1.023  -8.573  0.00  0.00    +0.112 C 
ATOM     28  C   UNL     1      25.367  -0.975  -8.501  0.00  0.00    +0.037 C 
BRANCH  27  29
ATOM     29  O   UNL     1      23.295   0.227  -8.226  0.00  0.00    -0.392 OA
ATOM     30  H   UNL     1      23.727   0.912  -8.801  0.00  0.00    +0.210 HD
ENDBRANCH  27  29
ENDBRANCH  26  27
ENDBRANCH  19  26
ENDBRANCH  18  19
ENDBRANCH  16  18
ENDBRANCH   1  16
TORSDOF 9
