REMARK  Name = 
REMARK  9 active torsions:
REMARK  status: ('A' for Active; 'I' for Inactive)
REMARK    1  A    between atoms: C_1  and  S_2
REMARK    2  A    between atoms: S_2  and  C_5
REMARK    3  A    between atoms: C_10  and  N_11
REMARK    4  A    between atoms: N_11  and  N_12
REMARK    5  A    between atoms: C_13  and  C_15
REMARK    6  A    between atoms: C_19  and  O_20
REMARK    7  A    between atoms: O_20  and  C_21
REMARK    8  A    between atoms: C_21  and  C_22
REMARK    9  A    between atoms: C_27  and  C_28
REMARK                            x       y       z     vdW  Elec       q    Type
REMARK                         _______ _______ _______ _____ _____    ______ ____
ROOT
ATOM      1  N   UNL     1      22.659   0.275 -10.366  0.00  0.00    -0.232 N 
ATOM      2  C   UNL     1      23.461  -0.443 -11.321  0.00  0.00    +0.260 C 
ATOM      3  O   UNL     1      23.212  -1.657 -11.558  0.00  0.00    -0.269 OA
ATOM      4  H   UNL     1      22.773   1.306 -10.261  0.00  0.00    +0.173 HD
ENDROOT
BRANCH   2   5
ATOM      5  C   UNL     1      24.582   0.213 -12.035  0.00  0.00    +0.042 A 
ATOM      6  C   UNL     1      24.319   1.000 -13.170  0.00  0.00    +0.013 A 
ATOM      7  C   UNL     1      25.361   1.626 -13.856  0.00  0.00    +0.004 A 
ATOM      8  C   UNL     1      26.678   1.484 -13.414  0.00  0.00    +0.046 A 
ATOM      9  C   UNL     1      26.962   0.718 -12.269  0.00  0.00    +0.122 A 
ATOM     10  C   UNL     1      25.912   0.087 -11.589  0.00  0.00    +0.058 A 
BRANCH   9  11
ATOM     11  O   UNL     1      28.265   0.557 -11.770  0.00  0.00    -0.487 OA
BRANCH  11  12
ATOM     12  C   UNL     1      28.694   0.921 -10.457  0.00  0.00    +0.265 C 
BRANCH  12  13
ATOM     13  C   UNL     1      28.083   0.009  -9.413  0.00  0.00    +0.007 A 
ATOM     14  C   UNL     1      28.465  -1.344  -9.393  0.00  0.00    +0.008 A 
ATOM     15  C   UNL     1      27.938  -2.218  -8.440  0.00  0.00    +0.000 A 
ATOM     16  C   UNL     1      27.034  -1.751  -7.485  0.00  0.00    +0.001 A 
ATOM     17  C   UNL     1      26.661  -0.406  -7.477  0.00  0.00    +0.019 A 
ATOM     18  C   UNL     1      27.182   0.482  -8.428  0.00  0.00    +0.058 A 
BRANCH  18  19
ATOM     19  C   UNL     1      26.779   1.867  -8.367  0.00  0.00    +0.100 C 
ATOM     20  N   UNL     1      26.455   2.977  -8.319  0.00  0.00    -0.191 NA
ENDBRANCH  18  19
ENDBRANCH  12  13
ENDBRANCH  11  12
ENDBRANCH   9  11
ENDBRANCH   2   5
BRANCH   1  21
ATOM     21  N   UNL     1      21.617  -0.340  -9.648  0.00  0.00    -0.262 N 
ATOM     22  H   UNL     1      21.734  -0.458  -8.618  0.00  0.00    +0.170 HD
BRANCH  21  28
ATOM     23  C   UNL     1      19.364  -0.291 -10.689  0.00  0.00    +0.110 A 
ATOM     24  C   UNL     1      18.287  -0.984 -11.268  0.00  0.00    +0.029 A 
ATOM     25  C   UNL     1      18.354  -2.364 -11.462  0.00  0.00    +0.002 A 
ATOM     26  C   UNL     1      19.492  -3.072 -11.076  0.00  0.00    +0.002 A 
ATOM     27  C   UNL     1      20.566  -2.399 -10.490  0.00  0.00    +0.026 A 
ATOM     28  C   UNL     1      20.518  -1.008 -10.294  0.00  0.00    +0.069 A 
BRANCH  23  30
ATOM     29  C   UNL     1      18.450   1.929  -8.971  0.00  0.00    +0.200 C 
ATOM     30  S   UNL     1      19.270   1.467 -10.485  0.00  0.00    -0.004 S 
ATOM     31  O   UNL     1      20.658   2.040 -10.476  0.00  0.00    -0.170 OA
ATOM     32  O   UNL     1      18.491   2.059 -11.626  0.00  0.00    -0.170 OA
ENDBRANCH  23  30
ENDBRANCH  21  28
ENDBRANCH   1  21
TORSDOF 8
