REMARK  Name = 
REMARK  7 active torsions:
REMARK  status: ('A' for Active; 'I' for Inactive)
REMARK    1  A    between atoms: C_1  and  S_2
REMARK    2  A    between atoms: S_2  and  C_5
REMARK    3  A    between atoms: C_10  and  S_11
REMARK    4  A    between atoms: S_11  and  N_14
REMARK    5  A    between atoms: N_14  and  C_15
REMARK    6  A    between atoms: C_15  and  C_16
REMARK    7  A    between atoms: C_15  and  C_22
REMARK                            x       y       z     vdW  Elec       q    Type
REMARK                         _______ _______ _______ _____ _____    ______ ____
ROOT
ATOM      1  N   UNL     1      23.787   0.223 -10.292  0.00  0.00    -0.178 NA
ATOM      2  H   UNL     1      23.685   0.536  -9.299  0.00  0.00    +0.149 HD
ENDROOT
BRANCH   1   3
ATOM      3  S   UNL     1      22.473  -0.878 -10.627  0.00  0.00    +0.061 S 
ATOM      4  O   UNL     1      22.735  -1.474 -11.980  0.00  0.00    -0.153 OA
ATOM      5  O   UNL     1      22.459  -1.976  -9.599  0.00  0.00    -0.153 OA
BRANCH   3  11
ATOM      6  C   UNL     1      19.662  -0.776 -10.790  0.00  0.00    +0.114 A 
ATOM      7  C   UNL     1      18.452  -0.058 -10.802  0.00  0.00    +0.029 A 
ATOM      8  C   UNL     1      18.437   1.327 -10.643  0.00  0.00    +0.002 A 
ATOM      9  C   UNL     1      19.630   2.021 -10.473  0.00  0.00    +0.002 A 
ATOM     10  C   UNL     1      20.843   1.335 -10.470  0.00  0.00    +0.030 A 
ATOM     11  C   UNL     1      20.888  -0.063 -10.635  0.00  0.00    +0.130 A 
BRANCH   6  13
ATOM     12  C   UNL     1      18.197  -3.047 -11.991  0.00  0.00    +0.200 C 
ATOM     13  S   UNL     1      19.590  -2.541 -11.001  0.00  0.00    -0.004 S 
ATOM     14  O   UNL     1      20.843  -3.015 -11.682  0.00  0.00    -0.170 OA
ATOM     15  O   UNL     1      19.450  -3.221  -9.669  0.00  0.00    -0.170 OA
ENDBRANCH   6  13
ENDBRANCH   3  11
ENDBRANCH   1   3
BRANCH   1  16
ATOM     16  C   UNL     1      25.101  -0.413 -10.507  0.00  0.00    +0.136 C 
BRANCH  16  17
ATOM     17  C   UNL     1      26.025  -0.159  -9.332  0.00  0.00    -0.022 A 
ATOM     18  C   UNL     1      26.446   1.146  -9.011  0.00  0.00    +0.006 A 
ATOM     19  C   UNL     1      27.322   1.364  -7.943  0.00  0.00    +0.003 A 
ATOM     20  C   UNL     1      27.793   0.285  -7.192  0.00  0.00    +0.038 A 
ATOM     21  C   UNL     1      27.392  -1.015  -7.508  0.00  0.00    +0.124 A 
ATOM     22  F   UNL     1      27.855  -2.063  -6.782  0.00  0.00    -0.205 F 
ATOM     23  C   UNL     1      26.516  -1.239  -8.576  0.00  0.00    +0.044 A 
ENDBRANCH  16  17
BRANCH  16  24
ATOM     24  C   UNL     1      25.755   0.104 -11.772  0.00  0.00    -0.025 A 
ATOM     25  C   UNL     1      25.021   0.820 -12.737  0.00  0.00    +0.005 A 
ATOM     26  C   UNL     1      25.653   1.315 -13.882  0.00  0.00    +0.000 A 
ATOM     27  C   UNL     1      27.022   1.112 -14.070  0.00  0.00    +0.000 A 
ATOM     28  C   UNL     1      27.763   0.418 -13.112  0.00  0.00    +0.000 A 
ATOM     29  C   UNL     1      27.136  -0.079 -11.966  0.00  0.00    +0.005 A 
ENDBRANCH  16  24
ENDBRANCH   1  16
TORSDOF 6
