_rank13
     RDKit          3D

 20 21  0  0  0  0  0  0  0  0999 V2000
   27.5327   -0.6638  -13.3031 C   0  0  0  0  0  0  0  0  0  0  0  0
   27.3360    0.6700  -12.6225 C   0  0  0  0  0  0  0  0  0  0  0  0
   26.1691    0.8045  -11.9228 O   0  0  0  0  0  0  0  0  0  0  0  0
   26.2828    0.9755  -10.5609 C   0  0  2  0  0  0  0  0  0  0  0  0
   27.4601    0.2205   -9.9871 C   0  0  0  0  0  0  0  0  0  0  0  0
   27.1138    0.4894   -8.2487 S   0  0  2  0  0  6  0  0  0  0  0  0
   27.5793    1.8626   -7.8324 O   0  0  0  0  0  0  0  0  0  0  0  0
   27.6987   -0.5999   -7.4127 O   0  0  0  0  0  0  0  0  0  0  0  0
   25.3547    0.3734   -8.3765 C   0  0  0  0  0  0  0  0  0  0  0  0
   25.0515    0.5534   -9.8499 C   0  0  2  0  0  0  0  0  0  0  0  0
   24.3951   -0.5643  -10.3488 O   0  0  0  0  0  0  0  0  0  0  0  0
   23.0147   -0.6935  -10.3037 C   0  0  0  0  0  0  0  0  0  0  0  0
   22.2962   -0.0725   -9.2740 C   0  0  0  0  0  0  0  0  0  0  0  0
   20.9338   -0.1552   -9.1594 C   0  0  0  0  0  0  0  0  0  0  0  0
   20.2257    0.4431   -8.1658 F   0  0  0  0  0  0  0  0  0  0  0  0
   20.2395   -0.8799  -10.1059 C   0  0  0  0  0  0  0  0  0  0  0  0
   20.8788   -1.5135  -11.1475 C   0  0  0  0  0  0  0  0  0  0  0  0
   20.1701   -2.2326  -12.1260 C   0  0  0  0  0  0  0  0  0  0  0  0
   19.5494   -2.8486  -12.9644 N   0  0  0  0  0  0  0  0  0  0  0  0
   22.2728   -1.4051  -11.2218 C   0  0  0  0  0  0  0  0  0  0  0  0
  1  2  1  6
  2  3  1  1
  4  3  1  6
  5  4  1  6
  6  5  1  6
  6  7  2  0
  6  8  2  0
  6  9  1  0
  9 10  1  1
 10 11  1  6
 11 12  1  0
 12 13  2  0
 13 14  1  0
 14 15  1  0
 14 16  2  0
 16 17  1  0
 17 18  1  0
 18 19  3  0
 17 20  2  0
 10  4  1  0
 20 12  1  0
M  END
$$$$
