_rank3
     RDKit          3D

 20 21  0  0  0  0  0  0  0  0999 V2000
   26.9362    0.6514  -14.0053 C   0  0  0  0  0  0  0  0  0  0  0  0
   26.9362    1.2459  -12.6170 C   0  0  0  0  0  0  0  0  0  0  0  0
   25.7922    1.0484  -11.8948 O   0  0  0  0  0  0  0  0  0  0  0  0
   25.9294    0.9911  -10.5255 C   0  0  2  0  0  0  0  0  0  0  0  0
   27.0706    0.0941  -10.1032 C   0  0  0  0  0  0  0  0  0  0  0  0
   26.7576    0.0960   -8.3378 S   0  0  2  0  0  6  0  0  0  0  0  0
   27.3005    1.3583   -7.7152 O   0  0  0  0  0  0  0  0  0  0  0  0
   27.2921   -1.1426   -7.6991 O   0  0  0  0  0  0  0  0  0  0  0  0
   24.9936    0.0924   -8.4490 C   0  0  0  0  0  0  0  0  0  0  0  0
   24.6848    0.5233   -9.8682 C   0  0  2  0  0  0  0  0  0  0  0  0
   23.9642   -0.4640  -10.5276 O   0  0  0  0  0  0  0  0  0  0  0  0
   22.5819   -0.5496  -10.4478 C   0  0  0  0  0  0  0  0  0  0  0  0
   21.9402   -1.7351  -10.8287 C   0  0  0  0  0  0  0  0  0  0  0  0
   20.5809   -1.8965  -10.7811 C   0  0  0  0  0  0  0  0  0  0  0  0
   19.9470   -3.0415  -11.1470 F   0  0  0  0  0  0  0  0  0  0  0  0
   19.8114   -0.8431  -10.3322 C   0  0  0  0  0  0  0  0  0  0  0  0
   20.3735    0.3500   -9.9380 C   0  0  0  0  0  0  0  0  0  0  0  0
   19.5921    1.4158   -9.4581 C   0  0  0  0  0  0  0  0  0  0  0  0
   18.9093    2.3284   -9.0474 N   0  0  0  0  0  0  0  0  0  0  0  0
   21.7667    0.4709  -10.0079 C   0  0  0  0  0  0  0  0  0  0  0  0
  1  2  1  6
  2  3  1  1
  4  3  1  6
  5  4  1  6
  6  5  1  6
  6  7  2  0
  6  8  2  0
  6  9  1  0
  9 10  1  1
 10 11  1  6
 11 12  1  0
 12 13  2  0
 13 14  1  0
 14 15  1  0
 14 16  2  0
 16 17  1  0
 17 18  1  0
 18 19  3  0
 17 20  2  0
 10  4  1  0
 20 12  1  0
M  END
$$$$
