_rank20
     RDKit          3D

 20 21  0  0  0  0  0  0  0  0999 V2000
   23.9826    4.5082  -10.7304 C   0  0  0  0  0  0  0  0  0  0  0  0
   24.9765    3.4441  -11.1314 C   0  0  0  0  0  0  0  0  0  0  0  0
   25.0405    2.3594  -10.3015 O   0  0  0  0  0  0  0  0  0  0  0  0
   25.9714    1.3948  -10.6180 C   0  0  2  0  0  0  0  0  0  0  0  0
   26.7779    1.7600  -11.8433 C   0  0  0  0  0  0  0  0  0  0  0  0
   27.6485    0.2063  -12.0490 S   0  0  2  0  0  6  0  0  0  0  0  0
   28.8168    0.1353  -11.0972 O   0  0  0  0  0  0  0  0  0  0  0  0
   28.0466    0.0013  -13.4728 O   0  0  0  0  0  0  0  0  0  0  0  0
   26.3075   -0.8383  -11.5644 C   0  0  0  0  0  0  0  0  0  0  0  0
   25.3378    0.0722  -10.8392 C   0  0  2  0  0  0  0  0  0  0  0  0
   24.1037    0.0703  -11.4764 O   0  0  0  0  0  0  0  0  0  0  0  0
   23.0533   -0.7308  -11.0530 C   0  0  0  0  0  0  0  0  0  0  0  0
   22.1626   -1.2578  -11.9970 C   0  0  0  0  0  0  0  0  0  0  0  0
   21.1009   -2.0540  -11.6582 C   0  0  0  0  0  0  0  0  0  0  0  0
   20.2307   -2.5717  -12.5646 F   0  0  0  0  0  0  0  0  0  0  0  0
   20.9050   -2.3529  -10.3258 C   0  0  0  0  0  0  0  0  0  0  0  0
   21.7420   -1.8734   -9.3438 C   0  0  0  0  0  0  0  0  0  0  0  0
   21.5572   -2.1966   -7.9880 C   0  0  0  0  0  0  0  0  0  0  0  0
   21.4053   -2.4666   -6.8168 N   0  0  0  0  0  0  0  0  0  0  0  0
   22.8117   -1.0597   -9.7366 C   0  0  0  0  0  0  0  0  0  0  0  0
  1  2  1  6
  2  3  1  1
  4  3  1  6
  5  4  1  6
  6  5  1  6
  6  7  2  0
  6  8  2  0
  6  9  1  0
  9 10  1  1
 10 11  1  6
 11 12  1  0
 12 13  2  0
 13 14  1  0
 14 15  1  0
 14 16  2  0
 16 17  1  0
 17 18  1  0
 18 19  3  0
 17 20  2  0
 10  4  1  0
 20 12  1  0
M  END
$$$$
