_rank12
     RDKit          3D

 20 21  0  0  0  0  0  0  0  0999 V2000
   28.2794   -3.3868  -10.3071 C   0  0  0  0  0  0  0  0  0  0  0  0
   27.3264   -2.4271   -9.6351 C   0  0  0  0  0  0  0  0  0  0  0  0
   26.4764   -1.7615  -10.4739 O   0  0  0  0  0  0  0  0  0  0  0  0
   26.4376   -0.3901  -10.3518 C   0  0  2  0  0  0  0  0  0  0  0  0
   27.1246    0.0906   -9.0939 C   0  0  0  0  0  0  0  0  0  0  0  0
   26.6485    1.8166   -9.1860 S   0  0  2  0  0  6  0  0  0  0  0  0
   27.5426    2.5514  -10.1538 O   0  0  0  0  0  0  0  0  0  0  0  0
   26.6272    2.4381   -7.8292 O   0  0  0  0  0  0  0  0  0  0  0  0
   25.0255    1.5408   -9.8292 C   0  0  0  0  0  0  0  0  0  0  0  0
   25.0460    0.1228  -10.3625 C   0  0  2  0  0  0  0  0  0  0  0  0
   24.0909   -0.6510   -9.7161 O   0  0  0  0  0  0  0  0  0  0  0  0
   22.7658   -0.6855  -10.1252 C   0  0  0  0  0  0  0  0  0  0  0  0
   22.4290   -1.3309  -11.3220 C   0  0  0  0  0  0  0  0  0  0  0  0
   21.1455   -1.4056  -11.7941 C   0  0  0  0  0  0  0  0  0  0  0  0
   20.8062   -2.0293  -12.9528 F   0  0  0  0  0  0  0  0  0  0  0  0
   20.1395   -0.8217  -11.0523 C   0  0  0  0  0  0  0  0  0  0  0  0
   20.3957   -0.1739   -9.8650 C   0  0  0  0  0  0  0  0  0  0  0  0
   19.3684    0.4010   -9.0964 C   0  0  0  0  0  0  0  0  0  0  0  0
   18.4822    0.8866   -8.4281 N   0  0  0  0  0  0  0  0  0  0  0  0
   21.7234   -0.1188   -9.4238 C   0  0  0  0  0  0  0  0  0  0  0  0
  1  2  1  6
  2  3  1  1
  4  3  1  1
  5  4  1  6
  6  5  1  1
  6  7  2  0
  6  8  2  0
  6  9  1  0
  9 10  1  1
 10 11  1  1
 11 12  1  0
 12 13  2  0
 13 14  1  0
 14 15  1  0
 14 16  2  0
 16 17  1  0
 17 18  1  0
 18 19  3  0
 17 20  2  0
 10  4  1  0
 20 12  1  0
M  END
$$$$
