_rank15
     RDKit          3D

 20 21  0  0  0  0  0  0  0  0999 V2000
   28.1409   -0.5282  -13.6878 C   0  0  0  0  0  0  0  0  0  0  0  0
   27.8272    0.3782  -12.5212 C   0  0  0  0  0  0  0  0  0  0  0  0
   26.6025    0.1881  -11.9440 O   0  0  0  0  0  0  0  0  0  0  0  0
   26.4670    0.5971  -10.6358 C   0  0  2  0  0  0  0  0  0  0  0  0
   27.2746   -0.2560   -9.6844 C   0  0  0  0  0  0  0  0  0  0  0  0
   26.6490    0.4159   -8.1444 S   0  0  2  0  0  6  0  0  0  0  0  0
   27.3408    1.7182   -7.8266 O   0  0  0  0  0  0  0  0  0  0  0  0
   26.7587   -0.5839   -7.0416 O   0  0  0  0  0  0  0  0  0  0  0  0
   24.9827    0.6421   -8.6889 C   0  0  0  0  0  0  0  0  0  0  0  0
   25.0489    0.5865  -10.2015 C   0  0  2  0  0  0  0  0  0  0  0  0
   24.2567   -0.4478  -10.6827 O   0  0  0  0  0  0  0  0  0  0  0  0
   22.8822   -0.4753  -10.4972 C   0  0  0  0  0  0  0  0  0  0  0  0
   22.2256    0.6696  -10.0278 C   0  0  0  0  0  0  0  0  0  0  0  0
   20.8733    0.7207   -9.8169 C   0  0  0  0  0  0  0  0  0  0  0  0
   20.2249    1.8253   -9.3626 F   0  0  0  0  0  0  0  0  0  0  0  0
   20.1253   -0.4070  -10.0847 C   0  0  0  0  0  0  0  0  0  0  0  0
   20.7020   -1.5664  -10.5518 C   0  0  0  0  0  0  0  0  0  0  0  0
   19.9377   -2.7088  -10.8475 C   0  0  0  0  0  0  0  0  0  0  0  0
   19.2760   -3.6940  -11.0911 N   0  0  0  0  0  0  0  0  0  0  0  0
   22.0884   -1.5737  -10.7482 C   0  0  0  0  0  0  0  0  0  0  0  0
  1  2  1  6
  2  3  1  1
  4  3  1  6
  5  4  1  6
  6  5  1  6
  6  7  2  0
  6  8  2  0
  6  9  1  0
  9 10  1  1
 10 11  1  1
 11 12  1  0
 12 13  2  0
 13 14  1  0
 14 15  1  0
 14 16  2  0
 16 17  1  0
 17 18  1  0
 18 19  3  0
 17 20  2  0
 10  4  1  0
 20 12  1  0
M  END
$$$$
