_rank11
     RDKit          3D

 20 21  0  0  0  0  0  0  0  0999 V2000
   27.2661    0.1940  -14.1258 C   0  0  0  0  0  0  0  0  0  0  0  0
   27.2659    0.8139  -12.7486 C   0  0  0  0  0  0  0  0  0  0  0  0
   26.2838    0.3712  -11.9067 O   0  0  0  0  0  0  0  0  0  0  0  0
   26.3567    0.7937  -10.5978 C   0  0  2  0  0  0  0  0  0  0  0  0
   27.4158    0.0504   -9.8161 C   0  0  0  0  0  0  0  0  0  0  0  0
   27.0265    0.6890   -8.1867 S   0  0  2  0  0  6  0  0  0  0  0  0
   27.6246    2.0627   -8.0104 O   0  0  0  0  0  0  0  0  0  0  0  0
   27.4487   -0.2687   -7.1227 O   0  0  0  0  0  0  0  0  0  0  0  0
   25.2728    0.7296   -8.4031 C   0  0  0  0  0  0  0  0  0  0  0  0
   25.0560    0.6467   -9.9003 C   0  0  2  0  0  0  0  0  0  0  0  0
   24.3008   -0.4746  -10.2184 O   0  0  0  0  0  0  0  0  0  0  0  0
   22.9146   -0.4445  -10.2649 C   0  0  0  0  0  0  0  0  0  0  0  0
   22.2365    0.7248   -9.8973 C   0  0  0  0  0  0  0  0  0  0  0  0
   20.8712    0.8323   -9.9140 C   0  0  0  0  0  0  0  0  0  0  0  0
   20.2020    1.9610   -9.5606 F   0  0  0  0  0  0  0  0  0  0  0  0
   20.1327   -0.2612  -10.3166 C   0  0  0  0  0  0  0  0  0  0  0  0
   20.7313   -1.4416  -10.6952 C   0  0  0  0  0  0  0  0  0  0  0  0
   19.9808   -2.5489  -11.1281 C   0  0  0  0  0  0  0  0  0  0  0  0
   19.3391   -3.5023  -11.5116 N   0  0  0  0  0  0  0  0  0  0  0  0
   22.1294   -1.5068  -10.6581 C   0  0  0  0  0  0  0  0  0  0  0  0
  1  2  1  6
  2  3  1  1
  4  3  1  6
  5  4  1  6
  6  5  1  6
  6  7  2  0
  6  8  2  0
  6  9  1  0
  9 10  1  1
 10 11  1  1
 11 12  1  0
 12 13  2  0
 13 14  1  0
 14 15  1  0
 14 16  2  0
 16 17  1  0
 17 18  1  0
 18 19  3  0
 17 20  2  0
 10  4  1  0
 20 12  1  0
M  END
$$$$
