_rank10
     RDKit          3D

 20 21  0  0  0  0  0  0  0  0999 V2000
   27.3847    0.9017  -13.8039 C   0  0  0  0  0  0  0  0  0  0  0  0
   27.0833    0.5004  -12.3795 C   0  0  0  0  0  0  0  0  0  0  0  0
   26.4175    1.4347  -11.6358 O   0  0  0  0  0  0  0  0  0  0  0  0
   26.4732    1.2876  -10.2674 C   0  0  2  0  0  0  0  0  0  0  0  0
   27.5175    0.2801   -9.8435 C   0  0  0  0  0  0  0  0  0  0  0  0
   27.1073    0.2047   -8.0998 S   0  0  2  0  0  6  0  0  0  0  0  0
   27.7089    1.3819   -7.3732 O   0  0  0  0  0  0  0  0  0  0  0  0
   27.5097   -1.1071   -7.5126 O   0  0  0  0  0  0  0  0  0  0  0  0
   25.3571    0.3473   -8.3012 C   0  0  0  0  0  0  0  0  0  0  0  0
   25.1619    0.8826   -9.7050 C   0  0  2  0  0  0  0  0  0  0  0  0
   24.4063   -0.0047  -10.4604 O   0  0  0  0  0  0  0  0  0  0  0  0
   23.0265   -0.0880  -10.3433 C   0  0  0  0  0  0  0  0  0  0  0  0
   22.2884    1.0633  -10.0405 C   0  0  0  0  0  0  0  0  0  0  0  0
   20.9253    1.0620   -9.9059 C   0  0  0  0  0  0  0  0  0  0  0  0
   20.1982    2.1721   -9.6132 F   0  0  0  0  0  0  0  0  0  0  0  0
   20.2507   -0.1283  -10.0822 C   0  0  0  0  0  0  0  0  0  0  0  0
   20.9099   -1.2982  -10.3852 C   0  0  0  0  0  0  0  0  0  0  0  0
   20.2212   -2.5070  -10.5883 C   0  0  0  0  0  0  0  0  0  0  0  0
   19.6377   -3.5545  -10.7618 N   0  0  0  0  0  0  0  0  0  0  0  0
   22.3038   -1.2499  -10.5086 C   0  0  0  0  0  0  0  0  0  0  0  0
  1  2  1  6
  2  3  1  1
  4  3  1  6
  5  4  1  6
  6  5  1  6
  6  7  2  0
  6  8  2  0
  6  9  1  0
  9 10  1  1
 10 11  1  6
 11 12  1  0
 12 13  2  0
 13 14  1  0
 14 15  1  0
 14 16  2  0
 16 17  1  0
 17 18  1  0
 18 19  3  0
 17 20  2  0
 10  4  1  0
 20 12  1  0
M  END
$$$$
