_rank1
     RDKit          3D

 20 21  0  0  0  0  0  0  0  0999 V2000
   26.7827    0.4073   -7.9290 C   0  0  0  0  0  0  0  0  0  0  0  0
   27.3079   -0.3525   -9.1239 C   0  0  0  0  0  0  0  0  0  0  0  0
   26.3571   -0.9574   -9.8980 O   0  0  0  0  0  0  0  0  0  0  0  0
   26.2579   -0.5262  -11.2024 C   0  0  2  0  0  0  0  0  0  0  0  0
   27.0208    0.7572  -11.4389 C   0  0  0  0  0  0  0  0  0  0  0  0
   26.4502    1.0905  -13.1056 S   0  0  2  0  0  6  0  0  0  0  0  0
   27.2221    0.2544  -14.0960 O   0  0  0  0  0  0  0  0  0  0  0  0
   26.5091    2.5508  -13.4084 O   0  0  0  0  0  0  0  0  0  0  0  0
   24.7960    0.5152  -12.8679 C   0  0  0  0  0  0  0  0  0  0  0  0
   24.8455   -0.3247  -11.6079 C   0  0  2  0  0  0  0  0  0  0  0  0
   23.9883    0.1944  -10.6464 O   0  0  0  0  0  0  0  0  0  0  0  0
   22.6421   -0.1369  -10.5986 C   0  0  0  0  0  0  0  0  0  0  0  0
   22.2017   -1.3253  -11.1952 C   0  0  0  0  0  0  0  0  0  0  0  0
   20.8902   -1.7204  -11.1926 C   0  0  0  0  0  0  0  0  0  0  0  0
   20.4510   -2.8710  -11.7670 F   0  0  0  0  0  0  0  0  0  0  0  0
   19.9634   -0.9111  -10.5687 C   0  0  0  0  0  0  0  0  0  0  0  0
   20.3243    0.2689   -9.9585 C   0  0  0  0  0  0  0  0  0  0  0  0
   19.3843    1.0827   -9.3020 C   0  0  0  0  0  0  0  0  0  0  0  0
   18.5754    1.7774   -8.7269 N   0  0  0  0  0  0  0  0  0  0  0  0
   21.6755    0.6345   -9.9900 C   0  0  0  0  0  0  0  0  0  0  0  0
  1  2  1  6
  2  3  1  1
  4  3  1  1
  5  4  1  6
  6  5  1  1
  6  7  2  0
  6  8  2  0
  6  9  1  0
  9 10  1  1
 10 11  1  1
 11 12  1  0
 12 13  2  0
 13 14  1  0
 14 15  1  0
 14 16  2  0
 16 17  1  0
 17 18  1  0
 18 19  3  0
 17 20  2  0
 10  4  1  0
 20 12  1  0
M  END
$$$$
