_rank4
     RDKit          3D

 20 21  0  0  0  0  0  0  0  0999 V2000
   27.4999   -0.7575   -7.7465 C   0  0  0  0  0  0  0  0  0  0  0  0
   27.3572   -1.2427   -9.1696 C   0  0  0  0  0  0  0  0  0  0  0  0
   26.1528   -0.9792   -9.7606 O   0  0  0  0  0  0  0  0  0  0  0  0
   26.1924   -0.4296  -11.0230 C   0  0  2  0  0  0  0  0  0  0  0  0
   27.1547    0.7330  -11.1095 C   0  0  0  0  0  0  0  0  0  0  0  0
   26.7341    1.2909  -12.7607 S   0  0  2  0  0  6  0  0  0  0  0  0
   27.4219    0.4299  -13.7910 O   0  0  0  0  0  0  0  0  0  0  0  0
   27.0324    2.7439  -12.9259 O   0  0  0  0  0  0  0  0  0  0  0  0
   25.0007    0.9651  -12.6447 C   0  0  0  0  0  0  0  0  0  0  0  0
   24.8519    0.0250  -11.4660 C   0  0  2  0  0  0  0  0  0  0  0  0
   24.0330    0.5899  -10.4970 O   0  0  0  0  0  0  0  0  0  0  0  0
   22.7054    0.2185  -10.3416 C   0  0  0  0  0  0  0  0  0  0  0  0
   21.7252    1.2072  -10.1874 C   0  0  0  0  0  0  0  0  0  0  0  0
   20.3955    0.9211  -10.0265 C   0  0  0  0  0  0  0  0  0  0  0  0
   19.4353    1.8711   -9.8768 F   0  0  0  0  0  0  0  0  0  0  0  0
   20.0059   -0.4022  -10.0214 C   0  0  0  0  0  0  0  0  0  0  0  0
   20.9133   -1.4265  -10.1715 C   0  0  0  0  0  0  0  0  0  0  0  0
   20.5146   -2.7746  -10.1901 C   0  0  0  0  0  0  0  0  0  0  0  0
   20.1600   -3.9329  -10.2074 N   0  0  0  0  0  0  0  0  0  0  0  0
   22.2625   -1.0866  -10.3286 C   0  0  0  0  0  0  0  0  0  0  0  0
  1  2  1  6
  2  3  1  1
  4  3  1  1
  5  4  1  6
  6  5  1  1
  6  7  2  0
  6  8  2  0
  6  9  1  0
  9 10  1  1
 10 11  1  1
 11 12  1  0
 12 13  2  0
 13 14  1  0
 14 15  1  0
 14 16  2  0
 16 17  1  0
 17 18  1  0
 18 19  3  0
 17 20  2  0
 10  4  1  0
 20 12  1  0
M  END
$$$$
