_rank16
     RDKit          3D

 20 21  0  0  0  0  0  0  0  0999 V2000
   27.6163   -1.3158   -7.4875 C   0  0  0  0  0  0  0  0  0  0  0  0
   26.7625   -1.0557   -8.7057 C   0  0  0  0  0  0  0  0  0  0  0  0
   26.9910    0.1347   -9.3383 O   0  0  0  0  0  0  0  0  0  0  0  0
   26.9932    0.1108  -10.7155 C   0  0  2  0  0  0  0  0  0  0  0  0
   27.3540    1.4535  -11.3091 C   0  0  0  0  0  0  0  0  0  0  0  0
   27.0085    1.0748  -13.0271 S   0  0  2  0  0  6  0  0  0  0  0  0
   28.1602    0.3115  -13.6327 O   0  0  0  0  0  0  0  0  0  0  0  0
   26.6679    2.3123  -13.7889 O   0  0  0  0  0  0  0  0  0  0  0  0
   25.5962    0.0558  -12.7256 C   0  0  0  0  0  0  0  0  0  0  0  0
   25.6807   -0.3154  -11.2592 C   0  0  2  0  0  0  0  0  0  0  0  0
   24.5516    0.1271  -10.5823 O   0  0  0  0  0  0  0  0  0  0  0  0
   23.3355   -0.5359  -10.6589 C   0  0  0  0  0  0  0  0  0  0  0  0
   22.7551   -0.7714  -11.9119 C   0  0  0  0  0  0  0  0  0  0  0  0
   21.5570   -1.4161  -12.0701 C   0  0  0  0  0  0  0  0  0  0  0  0
   20.9843   -1.6512  -13.2799 F   0  0  0  0  0  0  0  0  0  0  0  0
   20.8962   -1.8569  -10.9422 C   0  0  0  0  0  0  0  0  0  0  0  0
   21.4083   -1.6640   -9.6791 C   0  0  0  0  0  0  0  0  0  0  0  0
   20.7474   -2.1336   -8.5305 C   0  0  0  0  0  0  0  0  0  0  0  0
   20.1683   -2.5326   -7.5440 N   0  0  0  0  0  0  0  0  0  0  0  0
   22.6338   -0.9961   -9.5656 C   0  0  0  0  0  0  0  0  0  0  0  0
  1  2  1  6
  2  3  1  1
  4  3  1  1
  5  4  1  6
  6  5  1  1
  6  7  2  0
  6  8  2  0
  6  9  1  0
  9 10  1  1
 10 11  1  1
 11 12  1  0
 12 13  2  0
 13 14  1  0
 14 15  1  0
 14 16  2  0
 16 17  1  0
 17 18  1  0
 18 19  3  0
 17 20  2  0
 10  4  1  0
 20 12  1  0
M  END
$$$$
