_rank9
     RDKit          3D

 20 21  0  0  0  0  0  0  0  0999 V2000
   25.8189    0.3941  -13.4586 C   0  0  0  0  0  0  0  0  0  0  0  0
   26.9062    0.4358  -12.4112 C   0  0  0  0  0  0  0  0  0  0  0  0
   26.8273    1.4743  -11.5255 O   0  0  0  0  0  0  0  0  0  0  0  0
   26.7218    1.1418  -10.1930 C   0  0  2  0  0  0  0  0  0  0  0  0
   27.5666   -0.0599   -9.8359 C   0  0  0  0  0  0  0  0  0  0  0  0
   26.9740   -0.3007   -8.1610 S   0  0  2  0  0  6  0  0  0  0  0  0
   27.6565    0.6653   -7.2245 O   0  0  0  0  0  0  0  0  0  0  0  0
   27.1274   -1.7242   -7.7395 O   0  0  0  0  0  0  0  0  0  0  0  0
   25.2906    0.1321   -8.4820 C   0  0  0  0  0  0  0  0  0  0  0  0
   25.3164    0.8709   -9.8044 C   0  0  2  0  0  0  0  0  0  0  0  0
   24.5256    0.2161  -10.7398 O   0  0  0  0  0  0  0  0  0  0  0  0
   23.1736   -0.0162  -10.5332 C   0  0  0  0  0  0  0  0  0  0  0  0
   22.3459    1.0382  -10.1267 C   0  0  0  0  0  0  0  0  0  0  0  0
   21.0035    0.8885   -9.9000 C   0  0  0  0  0  0  0  0  0  0  0  0
   20.1902    1.9036   -9.5063 F   0  0  0  0  0  0  0  0  0  0  0  0
   20.4426   -0.3580  -10.0861 C   0  0  0  0  0  0  0  0  0  0  0  0
   21.1938   -1.4392  -10.4882 C   0  0  0  0  0  0  0  0  0  0  0  0
   20.6190   -2.7045  -10.7009 C   0  0  0  0  0  0  0  0  0  0  0  0
   20.1340   -3.7989  -10.8875 N   0  0  0  0  0  0  0  0  0  0  0  0
   22.5629   -1.2400  -10.7037 C   0  0  0  0  0  0  0  0  0  0  0  0
  1  2  1  6
  2  3  1  1
  4  3  1  6
  5  4  1  6
  6  5  1  6
  6  7  2  0
  6  8  2  0
  6  9  1  0
  9 10  1  1
 10 11  1  6
 11 12  1  0
 12 13  2  0
 13 14  1  0
 14 15  1  0
 14 16  2  0
 16 17  1  0
 17 18  1  0
 18 19  3  0
 17 20  2  0
 10  4  1  0
 20 12  1  0
M  END
$$$$
