_rank7
     RDKit          3D

 20 21  0  0  0  0  0  0  0  0999 V2000
   26.7771    0.7897  -14.1806 C   0  0  0  0  0  0  0  0  0  0  0  0
   26.9855    1.0012  -12.6998 C   0  0  0  0  0  0  0  0  0  0  0  0
   25.9442    0.6184  -11.9008 O   0  0  0  0  0  0  0  0  0  0  0  0
   26.1613    0.6624  -10.5413 C   0  0  2  0  0  0  0  0  0  0  0  0
   27.3204   -0.2117  -10.1198 C   0  0  0  0  0  0  0  0  0  0  0  0
   27.1118   -0.0747   -8.3444 S   0  0  2  0  0  6  0  0  0  0  0  0
   27.6972    1.2252   -7.8512 O   0  0  0  0  0  0  0  0  0  0  0  0
   27.6762   -1.2672   -7.6466 O   0  0  0  0  0  0  0  0  0  0  0  0
   25.3443   -0.0693   -8.3521 C   0  0  0  0  0  0  0  0  0  0  0  0
   24.9550    0.2573   -9.7794 C   0  0  2  0  0  0  0  0  0  0  0  0
   24.1916   -0.7695  -10.3196 O   0  0  0  0  0  0  0  0  0  0  0  0
   22.8052   -0.7263  -10.3453 C   0  0  0  0  0  0  0  0  0  0  0  0
   22.1459    0.4726  -10.0452 C   0  0  0  0  0  0  0  0  0  0  0  0
   20.7817    0.5947  -10.0467 C   0  0  0  0  0  0  0  0  0  0  0  0
   20.1307    1.7522   -9.7581 F   0  0  0  0  0  0  0  0  0  0  0  0
   20.0249   -0.5143  -10.3635 C   0  0  0  0  0  0  0  0  0  0  0  0
   20.6044   -1.7241  -10.6726 C   0  0  0  0  0  0  0  0  0  0  0  0
   19.8349   -2.8488  -11.0186 C   0  0  0  0  0  0  0  0  0  0  0  0
   19.1623   -3.8113  -11.3167 N   0  0  0  0  0  0  0  0  0  0  0  0
   22.0022   -1.8031  -10.6541 C   0  0  0  0  0  0  0  0  0  0  0  0
  1  2  1  6
  2  3  1  1
  4  3  1  6
  5  4  1  6
  6  5  1  6
  6  7  2  0
  6  8  2  0
  6  9  1  0
  9 10  1  1
 10 11  1  6
 11 12  1  0
 12 13  2  0
 13 14  1  0
 14 15  1  0
 14 16  2  0
 16 17  1  0
 17 18  1  0
 18 19  3  0
 17 20  2  0
 10  4  1  0
 20 12  1  0
M  END
$$$$
