_rank8
     RDKit          3D

 20 21  0  0  0  0  0  0  0  0999 V2000
   27.1754    0.9446  -13.9837 C   0  0  0  0  0  0  0  0  0  0  0  0
   26.9986    1.4247  -12.5627 C   0  0  0  0  0  0  0  0  0  0  0  0
   25.9429    0.8789  -11.8868 O   0  0  0  0  0  0  0  0  0  0  0  0
   26.0350    0.8575  -10.5127 C   0  0  2  0  0  0  0  0  0  0  0  0
   27.0812   -0.1191  -10.0258 C   0  0  0  0  0  0  0  0  0  0  0  0
   26.7188   -0.0292   -8.2723 S   0  0  2  0  0  6  0  0  0  0  0  0
   27.3511    1.2027   -7.6734 O   0  0  0  0  0  0  0  0  0  0  0  0
   27.1251   -1.2862   -7.5776 O   0  0  0  0  0  0  0  0  0  0  0  0
   24.9651    0.1149   -8.4392 C   0  0  0  0  0  0  0  0  0  0  0  0
   24.7361    0.5213   -9.8806 C   0  0  2  0  0  0  0  0  0  0  0  0
   23.9517   -0.4227  -10.5306 O   0  0  0  0  0  0  0  0  0  0  0  0
   22.5833   -0.5172  -10.3236 C   0  0  0  0  0  0  0  0  0  0  0  0
   21.9564   -1.7669  -10.4100 C   0  0  0  0  0  0  0  0  0  0  0  0
   20.6111   -1.9416  -10.2214 C   0  0  0  0  0  0  0  0  0  0  0  0
   19.9916   -3.1485  -10.3018 F   0  0  0  0  0  0  0  0  0  0  0  0
   19.8414   -0.8349   -9.9281 C   0  0  0  0  0  0  0  0  0  0  0  0
   20.3897    0.4234   -9.8236 C   0  0  0  0  0  0  0  0  0  0  0  0
   19.6102    1.5483   -9.5015 C   0  0  0  0  0  0  0  0  0  0  0  0
   18.9402    2.5154   -9.2127 N   0  0  0  0  0  0  0  0  0  0  0  0
   21.7685    0.5547  -10.0288 C   0  0  0  0  0  0  0  0  0  0  0  0
  1  2  1  6
  2  3  1  1
  4  3  1  6
  5  4  1  6
  6  5  1  6
  6  7  2  0
  6  8  2  0
  6  9  1  0
  9 10  1  1
 10 11  1  6
 11 12  1  0
 12 13  2  0
 13 14  1  0
 14 15  1  0
 14 16  2  0
 16 17  1  0
 17 18  1  0
 18 19  3  0
 17 20  2  0
 10  4  1  0
 20 12  1  0
M  END
$$$$
