_rank2
     RDKit          3D

 20 21  0  0  0  0  0  0  0  0999 V2000
   26.1192   -0.0132   -7.7708 C   0  0  0  0  0  0  0  0  0  0  0  0
   26.8383    0.2463   -9.0732 C   0  0  0  0  0  0  0  0  0  0  0  0
   26.7351   -0.7463  -10.0077 O   0  0  0  0  0  0  0  0  0  0  0  0
   26.4607   -0.3521  -11.2986 C   0  0  2  0  0  0  0  0  0  0  0  0
   27.0494    1.0029  -11.6190 C   0  0  0  0  0  0  0  0  0  0  0  0
   26.2840    1.2415  -13.2227 S   0  0  2  0  0  6  0  0  0  0  0  0
   27.0426    0.4775  -14.2794 O   0  0  0  0  0  0  0  0  0  0  0  0
   26.1502    2.6938  -13.5400 O   0  0  0  0  0  0  0  0  0  0  0  0
   24.7353    0.4924  -12.8169 C   0  0  0  0  0  0  0  0  0  0  0  0
   25.0017   -0.3143  -11.5624 C   0  0  2  0  0  0  0  0  0  0  0  0
   24.1910    0.1249  -10.5238 O   0  0  0  0  0  0  0  0  0  0  0  0
   22.8355   -0.1653  -10.4693 C   0  0  0  0  0  0  0  0  0  0  0  0
   22.3856   -1.4364  -10.8490 C   0  0  0  0  0  0  0  0  0  0  0  0
   21.0648   -1.7984  -10.8255 C   0  0  0  0  0  0  0  0  0  0  0  0
   20.6162   -3.0281  -11.1905 F   0  0  0  0  0  0  0  0  0  0  0  0
   20.1379   -0.8679  -10.4033 C   0  0  0  0  0  0  0  0  0  0  0  0
   20.5077    0.3989  -10.0118 C   0  0  0  0  0  0  0  0  0  0  0  0
   19.5666    1.3402   -9.5590 C   0  0  0  0  0  0  0  0  0  0  0  0
   18.7642    2.1576   -9.1643 N   0  0  0  0  0  0  0  0  0  0  0  0
   21.8684    0.7258  -10.0566 C   0  0  0  0  0  0  0  0  0  0  0  0
  1  2  1  6
  2  3  1  1
  4  3  1  1
  5  4  1  6
  6  5  1  1
  6  7  2  0
  6  8  2  0
  6  9  1  0
  9 10  1  1
 10 11  1  1
 11 12  1  0
 12 13  2  0
 13 14  1  0
 14 15  1  0
 14 16  2  0
 16 17  1  0
 17 18  1  0
 18 19  3  0
 17 20  2  0
 10  4  1  0
 20 12  1  0
M  END
$$$$
