_rank19
     RDKit          3D

 20 21  0  0  0  0  0  0  0  0999 V2000
   27.0629    3.0214   -7.7018 C   0  0  0  0  0  0  0  0  0  0  0  0
   27.2369    2.3865   -9.0610 C   0  0  0  0  0  0  0  0  0  0  0  0
   26.6670    1.1526   -9.2088 O   0  0  0  0  0  0  0  0  0  0  0  0
   26.7519    0.5796  -10.4585 C   0  0  2  0  0  0  0  0  0  0  0  0
   27.0350    1.6008  -11.5366 C   0  0  0  0  0  0  0  0  0  0  0  0
   26.8233    0.5337  -12.9617 S   0  0  2  0  0  6  0  0  0  0  0  0
   28.0675   -0.2900  -13.1834 O   0  0  0  0  0  0  0  0  0  0  0  0
   26.4270    1.3222  -14.1654 O   0  0  0  0  0  0  0  0  0  0  0  0
   25.4845   -0.4138  -12.3029 C   0  0  0  0  0  0  0  0  0  0  0  0
   25.5133   -0.1564  -10.8102 C   0  0  2  0  0  0  0  0  0  0  0  0
   24.3137    0.4058  -10.3931 O   0  0  0  0  0  0  0  0  0  0  0  0
   23.1643   -0.3502  -10.2152 C   0  0  0  0  0  0  0  0  0  0  0  0
   22.3635   -0.6604  -11.3219 C   0  0  0  0  0  0  0  0  0  0  0  0
   21.2138   -1.3988  -11.2277 C   0  0  0  0  0  0  0  0  0  0  0  0
   20.4293   -1.7069  -12.2937 F   0  0  0  0  0  0  0  0  0  0  0  0
   20.8320   -1.8611   -9.9853 C   0  0  0  0  0  0  0  0  0  0  0  0
   21.5716   -1.5984   -8.8544 C   0  0  0  0  0  0  0  0  0  0  0  0
   21.1961   -2.0889   -7.5914 C   0  0  0  0  0  0  0  0  0  0  0  0
   20.8836   -2.5118   -6.5000 N   0  0  0  0  0  0  0  0  0  0  0  0
   22.7371   -0.8359   -8.9981 C   0  0  0  0  0  0  0  0  0  0  0  0
  1  2  1  6
  2  3  1  1
  4  3  1  1
  5  4  1  6
  6  5  1  1
  6  7  2  0
  6  8  2  0
  6  9  1  0
  9 10  1  1
 10 11  1  6
 11 12  1  0
 12 13  2  0
 13 14  1  0
 14 15  1  0
 14 16  2  0
 16 17  1  0
 17 18  1  0
 18 19  3  0
 17 20  2  0
 10  4  1  0
 20 12  1  0
M  END
$$$$
