_rank5
     RDKit          3D

 20 21  0  0  0  0  0  0  0  0999 V2000
   27.4438   -0.0088  -13.3338 C   0  0  0  0  0  0  0  0  0  0  0  0
   26.1334    0.0474  -12.5852 C   0  0  0  0  0  0  0  0  0  0  0  0
   25.9050    1.2018  -11.8891 O   0  0  0  0  0  0  0  0  0  0  0  0
   26.0958    1.1480  -10.5260 C   0  0  2  0  0  0  0  0  0  0  0  0
   27.2928    0.3048  -10.1500 C   0  0  0  0  0  0  0  0  0  0  0  0
   27.0462    0.2881   -8.3742 S   0  0  2  0  0  6  0  0  0  0  0  0
   27.5520    1.5733   -7.7673 O   0  0  0  0  0  0  0  0  0  0  0  0
   27.6618   -0.9252   -7.7607 O   0  0  0  0  0  0  0  0  0  0  0  0
   25.2814    0.2017   -8.4197 C   0  0  0  0  0  0  0  0  0  0  0  0
   24.9000    0.6207   -9.8248 C   0  0  2  0  0  0  0  0  0  0  0  0
   24.2024   -0.3980  -10.4608 O   0  0  0  0  0  0  0  0  0  0  0  0
   22.8176   -0.4756  -10.4340 C   0  0  0  0  0  0  0  0  0  0  0  0
   22.0707    0.6427  -10.0421 C   0  0  0  0  0  0  0  0  0  0  0  0
   20.7022    0.6444   -9.9875 C   0  0  0  0  0  0  0  0  0  0  0  0
   19.9666    1.7228   -9.6098 F   0  0  0  0  0  0  0  0  0  0  0  0
   20.0310   -0.5082  -10.3400 C   0  0  0  0  0  0  0  0  0  0  0  0
   20.6989   -1.6439  -10.7387 C   0  0  0  0  0  0  0  0  0  0  0  0
   20.0153   -2.8115  -11.1208 C   0  0  0  0  0  0  0  0  0  0  0  0
   19.4209   -3.8178  -11.4397 N   0  0  0  0  0  0  0  0  0  0  0  0
   22.0980   -1.6006  -10.7751 C   0  0  0  0  0  0  0  0  0  0  0  0
  1  2  1  6
  2  3  1  1
  4  3  1  6
  5  4  1  6
  6  5  1  6
  6  7  2  0
  6  8  2  0
  6  9  1  0
  9 10  1  1
 10 11  1  6
 11 12  1  0
 12 13  2  0
 13 14  1  0
 14 15  1  0
 14 16  2  0
 16 17  1  0
 17 18  1  0
 18 19  3  0
 17 20  2  0
 10  4  1  0
 20 12  1  0
M  END
$$$$
