_rank14
     RDKit          3D

 20 21  0  0  0  0  0  0  0  0999 V2000
   25.3629    4.9987  -10.3785 C   0  0  0  0  0  0  0  0  0  0  0  0
   26.0506    3.6713  -10.1642 C   0  0  0  0  0  0  0  0  0  0  0  0
   25.2180    2.5965  -10.0199 O   0  0  0  0  0  0  0  0  0  0  0  0
   25.7374    1.3649  -10.3523 C   0  0  2  0  0  0  0  0  0  0  0  0
   26.5580    1.4150  -11.6209 C   0  0  0  0  0  0  0  0  0  0  0  0
   26.8214   -0.3466  -11.8249 S   0  0  2  0  0  6  0  0  0  0  0  0
   27.9381   -0.8129  -10.9241 O   0  0  0  0  0  0  0  0  0  0  0  0
   27.0511   -0.6899  -13.2592 O   0  0  0  0  0  0  0  0  0  0  0  0
   25.2268   -0.8531  -11.2552 C   0  0  0  0  0  0  0  0  0  0  0  0
   24.6725    0.3448  -10.5115 C   0  0  2  0  0  0  0  0  0  0  0  0
   23.4848    0.7685  -11.0935 O   0  0  0  0  0  0  0  0  0  0  0  0
   22.2559    0.2263  -10.7465 C   0  0  0  0  0  0  0  0  0  0  0  0
   22.1413   -1.1560  -10.5511 C   0  0  0  0  0  0  0  0  0  0  0  0
   20.9636   -1.7665  -10.2102 C   0  0  0  0  0  0  0  0  0  0  0  0
   20.8400   -3.1060  -10.0172 F   0  0  0  0  0  0  0  0  0  0  0  0
   19.8414   -0.9807  -10.0475 C   0  0  0  0  0  0  0  0  0  0  0  0
   19.8803    0.3845  -10.2195 C   0  0  0  0  0  0  0  0  0  0  0  0
   18.7427    1.1890  -10.0310 C   0  0  0  0  0  0  0  0  0  0  0  0
   17.7666    1.8897   -9.8764 N   0  0  0  0  0  0  0  0  0  0  0  0
   21.1050    0.9643  -10.5721 C   0  0  0  0  0  0  0  0  0  0  0  0
  1  2  1  6
  2  3  1  1
  4  3  1  6
  5  4  1  6
  6  5  1  6
  6  7  2  0
  6  8  2  0
  6  9  1  0
  9 10  1  1
 10 11  1  6
 11 12  1  0
 12 13  2  0
 13 14  1  0
 14 15  1  0
 14 16  2  0
 16 17  1  0
 17 18  1  0
 18 19  3  0
 17 20  2  0
 10  4  1  0
 20 12  1  0
M  END
$$$$
