_rank6
     RDKit          3D

 20 21  0  0  0  0  0  0  0  0999 V2000
   25.8000    0.1718  -14.3536 C   0  0  0  0  0  0  0  0  0  0  0  0
   26.6943   -0.1231  -13.1692 C   0  0  0  0  0  0  0  0  0  0  0  0
   26.4315    0.8786  -12.0662 C   0  0  2  0  0  0  0  0  0  0  0  0
   27.5485    1.7389  -12.0210 O   0  0  0  0  0  0  0  0  0  0  0  0
   26.3203    0.2444  -10.7432 C   0  0  0  0  0  0  0  0  0  0  0  0
   27.4127   -0.3620  -10.1500 C   0  0  0  0  0  0  0  0  0  0  0  0
   27.3160   -0.9618   -8.9036 C   0  0  0  0  0  0  0  0  0  0  0  0
   26.0900   -0.9420   -8.2560 C   0  0  0  0  0  0  0  0  0  0  0  0
   24.9800   -0.3491   -8.8123 C   0  0  0  0  0  0  0  0  0  0  0  0
   25.1259    0.2381  -10.0612 C   0  0  0  0  0  0  0  0  0  0  0  0
   24.0396    0.8632  -10.6948 O   0  0  0  0  0  0  0  0  0  0  0  0
   22.7939    0.3015  -10.5656 C   0  0  0  0  0  0  0  0  0  0  0  0
   22.6068   -1.0479  -10.8372 C   0  0  0  0  0  0  0  0  0  0  0  0
   21.3752   -1.6612  -10.7228 C   0  0  0  0  0  0  0  0  0  0  0  0
   21.2527   -2.9825  -11.0014 F   0  0  0  0  0  0  0  0  0  0  0  0
   20.3195   -0.8728  -10.3224 C   0  0  0  0  0  0  0  0  0  0  0  0
   20.4832    0.4703  -10.0474 C   0  0  0  0  0  0  0  0  0  0  0  0
   19.3123    1.2165   -9.6328 C   0  0  0  0  0  0  0  0  0  0  0  0
   18.3691    1.8013   -9.3076 N   0  0  0  0  0  0  0  0  0  0  0  0
   21.7261    1.0778  -10.1655 C   0  0  0  0  0  0  0  0  0  0  0  0
  2  1  1  6
  2  3  1  0
  3  4  1  1
  3  5  1  0
  5  6  2  0
  6  7  1  0
  7  8  2  0
  8  9  1  0
  9 10  2  0
 10 11  1  0
 11 12  1  0
 12 13  2  0
 13 14  1  0
 14 15  1  0
 14 16  2  0
 16 17  1  0
 17 18  1  0
 18 19  3  0
 17 20  2  0
 10  5  1  0
 20 12  1  0
M  END
$$$$
