_rank2
     RDKit          3D

 20 21  0  0  0  0  0  0  0  0999 V2000
   28.0698    0.0434   -7.4072 C   0  0  0  0  0  0  0  0  0  0  0  0
   27.5839   -0.3894   -8.7733 C   0  0  0  0  0  0  0  0  0  0  0  0
   26.1175   -0.0503   -8.9272 C   0  0  2  0  0  0  0  0  0  0  0  0
   25.3924   -1.0625   -8.2643 O   0  0  0  0  0  0  0  0  0  0  0  0
   25.6818   -0.0560  -10.3326 C   0  0  0  0  0  0  0  0  0  0  0  0
   26.5849    0.1535  -11.3591 C   0  0  0  0  0  0  0  0  0  0  0  0
   26.1821    0.1496  -12.6859 C   0  0  0  0  0  0  0  0  0  0  0  0
   24.8423   -0.0708  -12.9673 C   0  0  0  0  0  0  0  0  0  0  0  0
   23.9132   -0.2832  -11.9749 C   0  0  0  0  0  0  0  0  0  0  0  0
   24.3638   -0.2702  -10.6625 C   0  0  0  0  0  0  0  0  0  0  0  0
   23.4768   -0.4791   -9.5940 O   0  0  0  0  0  0  0  0  0  0  0  0
   22.1295   -0.5015   -9.8556 C   0  0  0  0  0  0  0  0  0  0  0  0
   21.5355   -1.6552  -10.3514 C   0  0  0  0  0  0  0  0  0  0  0  0
   20.1856   -1.7301  -10.6310 C   0  0  0  0  0  0  0  0  0  0  0  0
   19.6611   -2.8836  -11.1136 F   0  0  0  0  0  0  0  0  0  0  0  0
   19.4353   -0.5994  -10.3965 C   0  0  0  0  0  0  0  0  0  0  0  0
   20.0054    0.5577   -9.9041 C   0  0  0  0  0  0  0  0  0  0  0  0
   19.1336    1.6952   -9.6902 C   0  0  0  0  0  0  0  0  0  0  0  0
   18.4265    2.5937   -9.5166 N   0  0  0  0  0  0  0  0  0  0  0  0
   21.3642    0.6230   -9.6260 C   0  0  0  0  0  0  0  0  0  0  0  0
  2  1  1  6
  2  3  1  0
  3  4  1  1
  3  5  1  0
  5  6  2  0
  6  7  1  0
  7  8  2  0
  8  9  1  0
  9 10  2  0
 10 11  1  0
 11 12  1  0
 12 13  2  0
 13 14  1  0
 14 15  1  0
 14 16  2  0
 16 17  1  0
 17 18  1  0
 18 19  3  0
 17 20  2  0
 10  5  1  0
 20 12  1  0
M  END
$$$$
