_rank4
     RDKit          3D

 20 21  0  0  0  0  0  0  0  0999 V2000
   26.6999   -1.0375  -13.0334 C   0  0  0  0  0  0  0  0  0  0  0  0
   27.3119    0.2794  -12.6082 C   0  0  0  0  0  0  0  0  0  0  0  0
   26.3553    1.0199  -11.6994 C   0  0  2  0  0  0  0  0  0  0  0  0
   26.9327    2.2803  -11.4386 O   0  0  0  0  0  0  0  0  0  0  0  0
   26.1768    0.3492  -10.4020 C   0  0  0  0  0  0  0  0  0  0  0  0
   27.2327    0.2135   -9.5191 C   0  0  0  0  0  0  0  0  0  0  0  0
   27.0725   -0.4173   -8.2948 C   0  0  0  0  0  0  0  0  0  0  0  0
   25.8199   -0.9148   -7.9686 C   0  0  0  0  0  0  0  0  0  0  0  0
   24.7445   -0.7998   -8.8192 C   0  0  0  0  0  0  0  0  0  0  0  0
   24.9538   -0.1607  -10.0331 C   0  0  0  0  0  0  0  0  0  0  0  0
   23.9060   -0.0041  -10.9550 O   0  0  0  0  0  0  0  0  0  0  0  0
   22.6495   -0.4244  -10.5965 C   0  0  0  0  0  0  0  0  0  0  0  0
   22.2436   -1.7233  -10.8754 C   0  0  0  0  0  0  0  0  0  0  0  0
   20.9914   -2.1955  -10.5362 C   0  0  0  0  0  0  0  0  0  0  0  0
   20.6506   -3.4736  -10.8341 F   0  0  0  0  0  0  0  0  0  0  0  0
   20.1436   -1.3165   -9.8998 C   0  0  0  0  0  0  0  0  0  0  0  0
   20.5266   -0.0214   -9.6130 C   0  0  0  0  0  0  0  0  0  0  0  0
   19.5643    0.8282   -8.9409 C   0  0  0  0  0  0  0  0  0  0  0  0
   18.7870    1.4946   -8.4033 N   0  0  0  0  0  0  0  0  0  0  0  0
   21.7884    0.4440   -9.9583 C   0  0  0  0  0  0  0  0  0  0  0  0
  2  1  1  6
  2  3  1  0
  3  4  1  1
  3  5  1  0
  5  6  2  0
  6  7  1  0
  7  8  2  0
  8  9  1  0
  9 10  2  0
 10 11  1  0
 11 12  1  0
 12 13  2  0
 13 14  1  0
 14 15  1  0
 14 16  2  0
 16 17  1  0
 17 18  1  0
 18 19  3  0
 17 20  2  0
 10  5  1  0
 20 12  1  0
M  END
$$$$
