_rank11
     RDKit          3D

 20 21  0  0  0  0  0  0  0  0999 V2000
   25.2836   -0.2259   -7.0576 C   0  0  0  0  0  0  0  0  0  0  0  0
   25.8565    0.5275   -8.2383 C   0  0  0  0  0  0  0  0  0  0  0  0
   26.4746   -0.4466   -9.2172 C   0  0  2  0  0  0  0  0  0  0  0  0
   27.8317   -0.5822   -8.8566 O   0  0  0  0  0  0  0  0  0  0  0  0
   26.4427    0.0491  -10.6022 C   0  0  0  0  0  0  0  0  0  0  0  0
   27.3881    0.9498  -11.0583 C   0  0  0  0  0  0  0  0  0  0  0  0
   27.3646    1.4215  -12.3620 C   0  0  0  0  0  0  0  0  0  0  0  0
   26.3646    0.9683  -13.2090 C   0  0  0  0  0  0  0  0  0  0  0  0
   25.4062    0.0728  -12.7935 C   0  0  0  0  0  0  0  0  0  0  0  0
   25.4708   -0.3708  -11.4802 C   0  0  0  0  0  0  0  0  0  0  0  0
   24.5287   -1.2850  -10.9814 O   0  0  0  0  0  0  0  0  0  0  0  0
   23.2477   -0.8476  -10.7543 C   0  0  0  0  0  0  0  0  0  0  0  0
   22.9538    0.5088  -10.8151 C   0  0  0  0  0  0  0  0  0  0  0  0
   21.6826    1.0004  -10.5949 C   0  0  0  0  0  0  0  0  0  0  0  0
   21.4552    2.3351  -10.6676 F   0  0  0  0  0  0  0  0  0  0  0  0
   20.6984    0.0811  -10.3076 C   0  0  0  0  0  0  0  0  0  0  0  0
   20.9685   -1.2713  -10.2423 C   0  0  0  0  0  0  0  0  0  0  0  0
   19.8666   -2.1601   -9.9332 C   0  0  0  0  0  0  0  0  0  0  0  0
   18.9842   -2.8614   -9.6744 N   0  0  0  0  0  0  0  0  0  0  0  0
   22.2504   -1.7559  -10.4653 C   0  0  0  0  0  0  0  0  0  0  0  0
  2  1  1  6
  2  3  1  0
  3  4  1  1
  3  5  1  0
  5  6  2  0
  6  7  1  0
  7  8  2  0
  8  9  1  0
  9 10  2  0
 10 11  1  0
 11 12  1  0
 12 13  2  0
 13 14  1  0
 14 15  1  0
 14 16  2  0
 16 17  1  0
 17 18  1  0
 18 19  3  0
 17 20  2  0
 10  5  1  0
 20 12  1  0
M  END
$$$$
