_rank3
     RDKit          3D

 20 21  0  0  0  0  0  0  0  0999 V2000
   26.8887    2.0008  -12.4163 C   0  0  0  0  0  0  0  0  0  0  0  0
   26.0354    0.8322  -12.8588 C   0  0  0  0  0  0  0  0  0  0  0  0
   26.4315   -0.4111  -12.0930 C   0  0  2  0  0  0  0  0  0  0  0  0
   25.6217   -1.4617  -12.5729 O   0  0  0  0  0  0  0  0  0  0  0  0
   26.1729   -0.2906  -10.6495 C   0  0  0  0  0  0  0  0  0  0  0  0
   27.1956   -0.4294   -9.7287 C   0  0  0  0  0  0  0  0  0  0  0  0
   26.9599   -0.3172   -8.3669 C   0  0  0  0  0  0  0  0  0  0  0  0
   25.6655   -0.0605   -7.9410 C   0  0  0  0  0  0  0  0  0  0  0  0
   24.6212    0.0841   -8.8251 C   0  0  0  0  0  0  0  0  0  0  0  0
   24.9061   -0.0365  -10.1779 C   0  0  0  0  0  0  0  0  0  0  0  0
   23.8941    0.0981  -11.1421 O   0  0  0  0  0  0  0  0  0  0  0  0
   22.5978   -0.1601  -10.7720 C   0  0  0  0  0  0  0  0  0  0  0  0
   22.1019   -1.4564  -10.8306 C   0  0  0  0  0  0  0  0  0  0  0  0
   20.8065   -1.7693  -10.4699 C   0  0  0  0  0  0  0  0  0  0  0  0
   20.3776   -3.0532  -10.5478 F   0  0  0  0  0  0  0  0  0  0  0  0
   20.0090   -0.7313  -10.0422 C   0  0  0  0  0  0  0  0  0  0  0  0
   20.4816    0.5643   -9.9763 C   0  0  0  0  0  0  0  0  0  0  0  0
   19.5666    1.5881   -9.5135 C   0  0  0  0  0  0  0  0  0  0  0  0
   18.8385    2.4007   -9.1301 N   0  0  0  0  0  0  0  0  0  0  0  0
   21.7862    0.8688  -10.3413 C   0  0  0  0  0  0  0  0  0  0  0  0
  2  1  1  6
  2  3  1  0
  3  4  1  6
  3  5  1  0
  5  6  2  0
  6  7  1  0
  7  8  2  0
  8  9  1  0
  9 10  2  0
 10 11  1  0
 11 12  1  0
 12 13  2  0
 13 14  1  0
 14 15  1  0
 14 16  2  0
 16 17  1  0
 17 18  1  0
 18 19  3  0
 17 20  2  0
 10  5  1  0
 20 12  1  0
M  END
$$$$
