_rank13
     RDKit          3D

 20 21  0  0  0  0  0  0  0  0999 V2000
   25.6640   -0.8911  -13.9551 C   0  0  0  0  0  0  0  0  0  0  0  0
   24.6262   -1.6712  -13.1777 C   0  0  0  0  0  0  0  0  0  0  0  0
   23.4566   -0.7729  -12.8394 C   0  0  2  0  0  0  0  0  0  0  0  0
   23.9872    0.5081  -12.5796 O   0  0  0  0  0  0  0  0  0  0  0  0
   22.7489   -1.2026  -11.6231 C   0  0  0  0  0  0  0  0  0  0  0  0
   21.6295   -2.0115  -11.6986 C   0  0  0  0  0  0  0  0  0  0  0  0
   20.9572   -2.4206  -10.5570 C   0  0  0  0  0  0  0  0  0  0  0  0
   21.4334   -1.9989   -9.3248 C   0  0  0  0  0  0  0  0  0  0  0  0
   22.5433   -1.1941   -9.2076 C   0  0  0  0  0  0  0  0  0  0  0  0
   23.1826   -0.8106  -10.3781 C   0  0  0  0  0  0  0  0  0  0  0  0
   24.3217    0.0099  -10.3413 O   0  0  0  0  0  0  0  0  0  0  0  0
   25.3912   -0.3876   -9.5783 C   0  0  0  0  0  0  0  0  0  0  0  0
   25.7407   -1.7305   -9.5148 C   0  0  0  0  0  0  0  0  0  0  0  0
   26.8067   -2.1823   -8.7628 C   0  0  0  0  0  0  0  0  0  0  0  0
   27.1008   -3.5057   -8.7390 F   0  0  0  0  0  0  0  0  0  0  0  0
   27.5243   -1.2365   -8.0650 C   0  0  0  0  0  0  0  0  0  0  0  0
   27.1943    0.1033   -8.1140 C   0  0  0  0  0  0  0  0  0  0  0  0
   28.0094    1.0222   -7.3452 C   0  0  0  0  0  0  0  0  0  0  0  0
   28.6598    1.7650   -6.7432 N   0  0  0  0  0  0  0  0  0  0  0  0
   26.1202    0.5476   -8.8733 C   0  0  0  0  0  0  0  0  0  0  0  0
  2  1  1  6
  2  3  1  0
  3  4  1  1
  3  5  1  0
  5  6  2  0
  6  7  1  0
  7  8  2  0
  8  9  1  0
  9 10  2  0
 10 11  1  0
 11 12  1  0
 12 13  2  0
 13 14  1  0
 14 15  1  0
 14 16  2  0
 16 17  1  0
 17 18  1  0
 18 19  3  0
 17 20  2  0
 10  5  1  0
 20 12  1  0
M  END
$$$$
