_rank15
     RDKit          3D

 20 21  0  0  0  0  0  0  0  0999 V2000
   26.9263   -0.7362   -8.6107 C   0  0  0  0  0  0  0  0  0  0  0  0
   26.6573    0.6909   -9.0357 C   0  0  0  0  0  0  0  0  0  0  0  0
   26.3150    0.7314  -10.5089 C   0  0  2  0  0  0  0  0  0  0  0  0
   25.2181    1.6073  -10.6494 O   0  0  0  0  0  0  0  0  0  0  0  0
   25.8906   -0.5793  -11.0256 C   0  0  0  0  0  0  0  0  0  0  0  0
   26.7973   -1.6128  -11.1766 C   0  0  0  0  0  0  0  0  0  0  0  0
   26.4052   -2.8507  -11.6628 C   0  0  0  0  0  0  0  0  0  0  0  0
   25.0724   -3.0350  -11.9985 C   0  0  0  0  0  0  0  0  0  0  0  0
   24.1401   -2.0323  -11.8629 C   0  0  0  0  0  0  0  0  0  0  0  0
   24.5799   -0.8110  -11.3722 C   0  0  0  0  0  0  0  0  0  0  0  0
   23.6889    0.2616  -11.2052 O   0  0  0  0  0  0  0  0  0  0  0  0
   22.6247    0.1028  -10.3530 C   0  0  0  0  0  0  0  0  0  0  0  0
   22.7436   -0.7129   -9.2348 C   0  0  0  0  0  0  0  0  0  0  0  0
   21.7042   -0.9061   -8.3469 C   0  0  0  0  0  0  0  0  0  0  0  0
   21.8786   -1.7142   -7.2722 F   0  0  0  0  0  0  0  0  0  0  0  0
   20.5238   -0.2493   -8.6143 C   0  0  0  0  0  0  0  0  0  0  0  0
   20.3841    0.5660   -9.7198 C   0  0  0  0  0  0  0  0  0  0  0  0
   19.1030    1.2143   -9.9160 C   0  0  0  0  0  0  0  0  0  0  0  0
   18.0754    1.7246  -10.0607 N   0  0  0  0  0  0  0  0  0  0  0  0
   21.4354    0.7540  -10.6070 C   0  0  0  0  0  0  0  0  0  0  0  0
  2  1  1  6
  2  3  1  0
  3  4  1  1
  3  5  1  0
  5  6  2  0
  6  7  1  0
  7  8  2  0
  8  9  1  0
  9 10  2  0
 10 11  1  0
 11 12  1  0
 12 13  2  0
 13 14  1  0
 14 15  1  0
 14 16  2  0
 16 17  1  0
 17 18  1  0
 18 19  3  0
 17 20  2  0
 10  5  1  0
 20 12  1  0
M  END
$$$$
