_rank19
     RDKit          3D

 20 21  0  0  0  0  0  0  0  0999 V2000
   26.4136   -1.2264  -11.3478 C   0  0  0  0  0  0  0  0  0  0  0  0
   26.2269    0.1550  -11.9364 C   0  0  0  0  0  0  0  0  0  0  0  0
   25.0328    0.1594  -12.8655 C   0  0  2  0  0  0  0  0  0  0  0  0
   24.3547    1.3781  -12.6533 O   0  0  0  0  0  0  0  0  0  0  0  0
   24.0815   -0.9225  -12.5665 C   0  0  0  0  0  0  0  0  0  0  0  0
   24.0144   -2.0520  -13.3619 C   0  0  0  0  0  0  0  0  0  0  0  0
   23.1207   -3.0758  -13.0866 C   0  0  0  0  0  0  0  0  0  0  0  0
   22.2863   -2.9444  -11.9869 C   0  0  0  0  0  0  0  0  0  0  0  0
   22.3224   -1.8368  -11.1714 C   0  0  0  0  0  0  0  0  0  0  0  0
   23.2333   -0.8386  -11.4870 C   0  0  0  0  0  0  0  0  0  0  0  0
   23.3303    0.3224  -10.7029 O   0  0  0  0  0  0  0  0  0  0  0  0
   22.5409    0.4260   -9.5849 C   0  0  0  0  0  0  0  0  0  0  0  0
   21.1971    0.7554   -9.7093 C   0  0  0  0  0  0  0  0  0  0  0  0
   20.3604    0.8722   -8.6173 C   0  0  0  0  0  0  0  0  0  0  0  0
   19.0566    1.1966   -8.7999 F   0  0  0  0  0  0  0  0  0  0  0  0
   20.9160    0.6463   -7.3777 C   0  0  0  0  0  0  0  0  0  0  0  0
   22.2490    0.3177   -7.2313 C   0  0  0  0  0  0  0  0  0  0  0  0
   22.7409    0.0989   -5.8860 C   0  0  0  0  0  0  0  0  0  0  0  0
   23.1278   -0.0894   -4.8126 N   0  0  0  0  0  0  0  0  0  0  0  0
   23.0823    0.2027   -8.3359 C   0  0  0  0  0  0  0  0  0  0  0  0
  2  1  1  6
  2  3  1  0
  3  4  1  1
  3  5  1  0
  5  6  2  0
  6  7  1  0
  7  8  2  0
  8  9  1  0
  9 10  2  0
 10 11  1  0
 11 12  1  0
 12 13  2  0
 13 14  1  0
 14 15  1  0
 14 16  2  0
 16 17  1  0
 17 18  1  0
 18 19  3  0
 17 20  2  0
 10  5  1  0
 20 12  1  0
M  END
$$$$
