_rank18
     RDKit          3D

 20 21  0  0  0  0  0  0  0  0999 V2000
   25.5390   -0.0323  -13.7357 C   0  0  0  0  0  0  0  0  0  0  0  0
   24.2028    0.1432  -13.0475 C   0  0  0  0  0  0  0  0  0  0  0  0
   23.2902   -1.0117  -13.3974 C   0  0  2  0  0  0  0  0  0  0  0  0
   22.5094   -0.5968  -14.4966 O   0  0  0  0  0  0  0  0  0  0  0  0
   22.3597   -1.3454  -12.3075 C   0  0  0  0  0  0  0  0  0  0  0  0
   20.9972   -1.4222  -12.5326 C   0  0  0  0  0  0  0  0  0  0  0  0
   20.1141   -1.7360  -11.5108 C   0  0  0  0  0  0  0  0  0  0  0  0
   20.6282   -1.9741  -10.2452 C   0  0  0  0  0  0  0  0  0  0  0  0
   21.9768   -1.9076   -9.9807 C   0  0  0  0  0  0  0  0  0  0  0  0
   22.8213   -1.5900  -11.0352 C   0  0  0  0  0  0  0  0  0  0  0  0
   24.2099   -1.5029  -10.8451 O   0  0  0  0  0  0  0  0  0  0  0  0
   24.6810   -0.7876   -9.7725 C   0  0  0  0  0  0  0  0  0  0  0  0
   23.8500    0.1114   -9.1160 C   0  0  0  0  0  0  0  0  0  0  0  0
   24.2744    0.8549   -8.0328 C   0  0  0  0  0  0  0  0  0  0  0  0
   23.4183    1.7175   -7.4316 F   0  0  0  0  0  0  0  0  0  0  0  0
   25.5748    0.6700   -7.6191 C   0  0  0  0  0  0  0  0  0  0  0  0
   26.4175   -0.2182   -8.2571 C   0  0  0  0  0  0  0  0  0  0  0  0
   27.7684   -0.3431   -7.7479 C   0  0  0  0  0  0  0  0  0  0  0  0
   28.8422   -0.4363   -7.3289 N   0  0  0  0  0  0  0  0  0  0  0  0
   25.9812   -0.9614   -9.3457 C   0  0  0  0  0  0  0  0  0  0  0  0
  2  1  1  6
  2  3  1  0
  3  4  1  6
  3  5  1  0
  5  6  2  0
  6  7  1  0
  7  8  2  0
  8  9  1  0
  9 10  2  0
 10 11  1  0
 11 12  1  0
 12 13  2  0
 13 14  1  0
 14 15  1  0
 14 16  2  0
 16 17  1  0
 17 18  1  0
 18 19  3  0
 17 20  2  0
 10  5  1  0
 20 12  1  0
M  END
$$$$
