_rank2
     RDKit          3D

 18 19  0  0  0  0  0  0  0  0999 V2000
   28.3347    0.4651   -8.2280 C   0  0  0  0  0  0  0  0  0  0  0  0
   27.4187    0.6458   -9.3937 C   0  0  0  0  0  0  0  0  0  0  0  0
   27.4179   -0.4721  -10.3078 N   0  0  0  0  0  0  0  0  0  0  0  0
   26.2135   -0.5219  -11.1122 C   0  0  2  0  0  0  0  0  0  0  0  0
   25.8147    0.8162  -11.6267 C   0  0  0  0  0  0  0  0  0  0  0  0
   24.3385    0.6306  -11.9229 C   0  0  0  0  0  0  0  0  0  0  0  0
   23.8236   -0.1920  -10.7609 C   0  0  1  0  0  0  0  0  0  0  0  0
   22.7595   -0.9893  -11.1485 O   0  0  0  0  0  0  0  0  0  0  0  0
   21.4344   -0.8655  -10.8628 C   0  0  0  0  0  0  0  0  0  0  0  0
   20.9408    0.2680  -10.2376 C   0  0  0  0  0  0  0  0  0  0  0  0
   19.5866    0.3314   -9.9750 C   0  0  0  0  0  0  0  0  0  0  0  0
   19.0939    1.4390   -9.3637 F   0  0  0  0  0  0  0  0  0  0  0  0
   18.7219   -0.6953  -10.3160 C   0  0  0  0  0  0  0  0  0  0  0  0
   19.2064   -1.8366  -10.9431 C   0  0  0  0  0  0  0  0  0  0  0  0
   18.3120   -2.8774  -11.2830 C   0  0  0  0  0  0  0  0  0  0  0  0
   17.5550   -3.7375  -11.5829 N   0  0  0  0  0  0  0  0  0  0  0  0
   20.5586   -1.8817  -11.1967 C   0  0  0  0  0  0  0  0  0  0  0  0
   25.0247   -0.9996  -10.3146 C   0  0  0  0  0  0  0  0  0  0  0  0
  1  2  1  6
  2  3  1  1
  4  3  1  1
  4  5  1  0
  5  6  1  1
  6  7  1  1
  7  8  1  6
  8  9  1  0
  9 10  2  0
 10 11  1  0
 11 12  1  0
 11 13  2  0
 13 14  1  0
 14 15  1  0
 15 16  3  0
 14 17  2  0
 18  7  1  1
 18  4  1  0
 17  9  1  0
M  END
$$$$
