_rank14
     RDKit          3D

 18 19  0  0  0  0  0  0  0  0999 V2000
   18.7439    0.2023   -9.4100 C   0  0  0  0  0  0  0  0  0  0  0  0
   18.8312   -1.2858   -9.5027 C   0  0  0  0  0  0  0  0  0  0  0  0
   19.3872   -1.7563  -10.7496 N   0  0  0  0  0  0  0  0  0  0  0  0
   20.5311   -0.9725  -11.1707 C   0  0  2  0  0  0  0  0  0  0  0  0
   21.0023   -1.3370  -12.5343 C   0  0  0  0  0  0  0  0  0  0  0  0
   22.4375   -0.8457  -12.5309 C   0  0  0  0  0  0  0  0  0  0  0  0
   22.9570   -1.2149  -11.1577 C   0  0  1  0  0  0  0  0  0  0  0  0
   23.9277   -0.3216  -10.7361 O   0  0  0  0  0  0  0  0  0  0  0  0
   25.1805   -0.5630  -10.2616 C   0  0  0  0  0  0  0  0  0  0  0  0
   25.9690   -1.5653  -10.8028 C   0  0  0  0  0  0  0  0  0  0  0  0
   27.2305   -1.7596  -10.2759 C   0  0  0  0  0  0  0  0  0  0  0  0
   28.0107   -2.7390  -10.8009 F   0  0  0  0  0  0  0  0  0  0  0  0
   27.7202   -0.9887   -9.2347 C   0  0  0  0  0  0  0  0  0  0  0  0
   26.9377    0.0190   -8.6844 C   0  0  0  0  0  0  0  0  0  0  0  0
   27.4501    0.7962   -7.6204 C   0  0  0  0  0  0  0  0  0  0  0  0
   27.8664    1.4627   -6.7343 N   0  0  0  0  0  0  0  0  0  0  0  0
   25.6834    0.1979   -9.2226 C   0  0  0  0  0  0  0  0  0  0  0  0
   21.7256   -1.1965  -10.2759 C   0  0  0  0  0  0  0  0  0  0  0  0
  1  2  1  6
  2  3  1  1
  4  3  1  1
  4  5  1  0
  5  6  1  1
  6  7  1  1
  7  8  1  1
  8  9  1  0
  9 10  2  0
 10 11  1  0
 11 12  1  0
 11 13  2  0
 13 14  1  0
 14 15  1  0
 15 16  3  0
 14 17  2  0
 18  7  1  1
 18  4  1  0
 17  9  1  0
M  END
$$$$
