_rank11
     RDKit          3D

 18 19  0  0  0  0  0  0  0  0999 V2000
   17.1743   -2.0506   -9.9541 C   0  0  0  0  0  0  0  0  0  0  0  0
   18.3878   -1.2065  -10.1666 C   0  0  0  0  0  0  0  0  0  0  0  0
   19.2755   -1.7153  -11.1856 N   0  0  0  0  0  0  0  0  0  0  0  0
   20.4871   -0.9284  -11.3004 C   0  0  2  0  0  0  0  0  0  0  0  0
   21.1951   -1.1552  -12.5895 C   0  0  0  0  0  0  0  0  0  0  0  0
   22.6117   -0.7157  -12.2709 C   0  0  0  0  0  0  0  0  0  0  0  0
   22.8663   -1.2521  -10.8783 C   0  0  1  0  0  0  0  0  0  0  0  0
   23.7549   -0.4441  -10.1885 O   0  0  0  0  0  0  0  0  0  0  0  0
   25.1148   -0.4124  -10.2370 C   0  0  0  0  0  0  0  0  0  0  0  0
   25.7912   -0.5713  -11.4356 C   0  0  0  0  0  0  0  0  0  0  0  0
   27.1714   -0.5297  -11.4168 C   0  0  0  0  0  0  0  0  0  0  0  0
   27.8425   -0.6833  -12.5870 F   0  0  0  0  0  0  0  0  0  0  0  0
   27.8861   -0.3359  -10.2464 C   0  0  0  0  0  0  0  0  0  0  0  0
   27.2177   -0.1756   -9.0389 C   0  0  0  0  0  0  0  0  0  0  0  0
   27.9609    0.0190   -7.8520 C   0  0  0  0  0  0  0  0  0  0  0  0
   28.5961    0.1946   -6.8680 N   0  0  0  0  0  0  0  0  0  0  0  0
   25.8425   -0.2200   -9.0774 C   0  0  0  0  0  0  0  0  0  0  0  0
   21.4947   -1.2902  -10.2368 C   0  0  0  0  0  0  0  0  0  0  0  0
  1  2  1  6
  2  3  1  1
  4  3  1  6
  4  5  1  0
  5  6  1  1
  6  7  1  1
  7  8  1  1
  8  9  1  0
  9 10  2  0
 10 11  1  0
 11 12  1  0
 11 13  2  0
 13 14  1  0
 14 15  1  0
 15 16  3  0
 14 17  2  0
 18  7  1  1
 18  4  1  0
 17  9  1  0
M  END
$$$$
