_rank10
     RDKit          3D

 18 19  0  0  0  0  0  0  0  0999 V2000
   18.4672   -3.9606  -11.7009 C   0  0  0  0  0  0  0  0  0  0  0  0
   19.3366   -3.0660  -10.8798 C   0  0  0  0  0  0  0  0  0  0  0  0
   18.8952   -1.6913  -10.8575 N   0  0  0  0  0  0  0  0  0  0  0  0
   19.9521   -0.7821  -10.4622 C   0  0  2  0  0  0  0  0  0  0  0  0
   20.1779    0.2992  -11.4594 C   0  0  0  0  0  0  0  0  0  0  0  0
   21.5941    0.7454  -11.1490 C   0  0  0  0  0  0  0  0  0  0  0  0
   22.3423   -0.5427  -10.8789 C   0  0  1  0  0  0  0  0  0  0  0  0
   23.3756   -0.3387   -9.9796 O   0  0  0  0  0  0  0  0  0  0  0  0
   24.7104   -0.2028  -10.2090 C   0  0  0  0  0  0  0  0  0  0  0  0
   25.2014   -0.0349  -11.4935 C   0  0  0  0  0  0  0  0  0  0  0  0
   26.5661    0.0965  -11.6588 C   0  0  0  0  0  0  0  0  0  0  0  0
   27.0560    0.2626  -12.9141 F   0  0  0  0  0  0  0  0  0  0  0  0
   27.4437    0.0651  -10.5878 C   0  0  0  0  0  0  0  0  0  0  0  0
   26.9619   -0.1029   -9.2954 C   0  0  0  0  0  0  0  0  0  0  0  0
   27.8700   -0.1354   -8.2124 C   0  0  0  0  0  0  0  0  0  0  0  0
   28.6441   -0.1513   -7.3161 N   0  0  0  0  0  0  0  0  0  0  0  0
   25.5991   -0.2322   -9.1504 C   0  0  0  0  0  0  0  0  0  0  0  0
   21.2828   -1.4845  -10.3455 C   0  0  0  0  0  0  0  0  0  0  0  0
  1  2  1  6
  2  3  1  1
  4  3  1  6
  4  5  1  0
  5  6  1  1
  6  7  1  1
  7  8  1  1
  8  9  1  0
  9 10  2  0
 10 11  1  0
 11 12  1  0
 11 13  2  0
 13 14  1  0
 14 15  1  0
 15 16  3  0
 14 17  2  0
 18  7  1  1
 18  4  1  0
 17  9  1  0
M  END
$$$$
