_rank15
     RDKit          3D

 18 19  0  0  0  0  0  0  0  0999 V2000
   18.5044    0.7215   -8.8402 C   0  0  0  0  0  0  0  0  0  0  0  0
   19.1110   -0.5872   -9.2272 C   0  0  0  0  0  0  0  0  0  0  0  0
   19.0002   -0.8823  -10.6365 N   0  0  0  0  0  0  0  0  0  0  0  0
   20.2729   -0.7747  -11.3212 C   0  0  2  0  0  0  0  0  0  0  0  0
   20.7470   -2.0808  -11.8537 C   0  0  0  0  0  0  0  0  0  0  0  0
   22.2399   -1.8559  -12.0015 C   0  0  0  0  0  0  0  0  0  0  0  0
   22.6263   -1.0779  -10.7615 C   0  0  1  0  0  0  0  0  0  0  0  0
   23.7042   -0.2452  -11.0123 O   0  0  0  0  0  0  0  0  0  0  0  0
   24.9232   -0.1993  -10.4084 C   0  0  0  0  0  0  0  0  0  0  0  0
   25.0714   -0.5309   -9.0715 C   0  0  0  0  0  0  0  0  0  0  0  0
   26.3349   -0.4633   -8.5183 C   0  0  0  0  0  0  0  0  0  0  0  0
   26.4897   -0.7876   -7.2091 F   0  0  0  0  0  0  0  0  0  0  0  0
   27.4418   -0.0777   -9.2561 C   0  0  0  0  0  0  0  0  0  0  0  0
   27.3043    0.2571  -10.5976 C   0  0  0  0  0  0  0  0  0  0  0  0
   28.4428    0.6511  -11.3373 C   0  0  0  0  0  0  0  0  0  0  0  0
   29.4039    0.9618  -11.9557 N   0  0  0  0  0  0  0  0  0  0  0  0
   26.0376    0.1837  -11.1314 C   0  0  0  0  0  0  0  0  0  0  0  0
   21.3715   -0.3127  -10.3954 C   0  0  0  0  0  0  0  0  0  0  0  0
  1  2  1  6
  2  3  1  1
  4  3  1  1
  4  5  1  0
  5  6  1  1
  6  7  1  1
  7  8  1  6
  8  9  1  0
  9 10  2  0
 10 11  1  0
 11 12  1  0
 11 13  2  0
 13 14  1  0
 14 15  1  0
 15 16  3  0
 14 17  2  0
 18  7  1  1
 18  4  1  0
 17  9  1  0
M  END
$$$$
