_rank17
     RDKit          3D

 18 19  0  0  0  0  0  0  0  0999 V2000
   19.6004   -3.6072  -10.5211 C   0  0  0  0  0  0  0  0  0  0  0  0
   19.5963   -2.1320  -10.7541 C   0  0  0  0  0  0  0  0  0  0  0  0
   20.1882   -1.7431  -12.0125 N   0  0  0  0  0  0  0  0  0  0  0  0
   21.2677   -0.7917  -11.8403 C   0  0  2  0  0  0  0  0  0  0  0  0
   22.0717   -0.6100  -13.0792 C   0  0  0  0  0  0  0  0  0  0  0  0
   23.3836   -0.0662  -12.5458 C   0  0  0  0  0  0  0  0  0  0  0  0
   23.6418   -0.8737  -11.2915 C   0  0  1  0  0  0  0  0  0  0  0  0
   24.3555   -0.1352  -10.3623 O   0  0  0  0  0  0  0  0  0  0  0  0
   25.4691   -0.4736   -9.6566 C   0  0  0  0  0  0  0  0  0  0  0  0
   25.6701   -1.7723   -9.2179 C   0  0  0  0  0  0  0  0  0  0  0  0
   26.8204   -2.0503   -8.5063 C   0  0  0  0  0  0  0  0  0  0  0  0
   27.0262   -3.3206   -8.0734 F   0  0  0  0  0  0  0  0  0  0  0  0
   27.7646   -1.0772   -8.2240 C   0  0  0  0  0  0  0  0  0  0  0  0
   27.5729    0.2284   -8.6591 C   0  0  0  0  0  0  0  0  0  0  0  0
   28.5443    1.2114   -8.3614 C   0  0  0  0  0  0  0  0  0  0  0  0
   29.3701    2.0275   -8.1271 N   0  0  0  0  0  0  0  0  0  0  0  0
   26.4207    0.4864   -9.3668 C   0  0  0  0  0  0  0  0  0  0  0  0
   22.2596   -1.2501  -10.7993 C   0  0  0  0  0  0  0  0  0  0  0  0
  1  2  1  6
  2  3  1  1
  4  3  1  6
  4  5  1  0
  5  6  1  1
  6  7  1  1
  7  8  1  1
  8  9  1  0
  9 10  2  0
 10 11  1  0
 11 12  1  0
 11 13  2  0
 13 14  1  0
 14 15  1  0
 15 16  3  0
 14 17  2  0
 18  7  1  1
 18  4  1  0
 17  9  1  0
M  END
$$$$
