_rank20
     RDKit          3D

 18 19  0  0  0  0  0  0  0  0999 V2000
   21.2173   -4.7276  -11.7428 C   0  0  0  0  0  0  0  0  0  0  0  0
   20.5581   -3.6647  -12.5589 C   0  0  0  0  0  0  0  0  0  0  0  0
   21.4252   -3.0769  -13.5529 N   0  0  0  0  0  0  0  0  0  0  0  0
   21.6645   -1.6687  -13.3084 C   0  0  2  0  0  0  0  0  0  0  0  0
   22.8092   -1.1386  -14.0979 C   0  0  0  0  0  0  0  0  0  0  0  0
   23.2108    0.0949  -13.3114 C   0  0  0  0  0  0  0  0  0  0  0  0
   23.1031   -0.3326  -11.8631 C   0  0  1  0  0  0  0  0  0  0  0  0
   22.7795    0.7410  -11.0502 O   0  0  0  0  0  0  0  0  0  0  0  0
   22.4113    0.7561   -9.7398 C   0  0  0  0  0  0  0  0  0  0  0  0
   21.1342    1.1363   -9.3606 C   0  0  0  0  0  0  0  0  0  0  0  0
   20.8239    1.1307   -8.0150 C   0  0  0  0  0  0  0  0  0  0  0  0
   19.5743    1.5007   -7.6343 F   0  0  0  0  0  0  0  0  0  0  0  0
   21.7444    0.7600   -7.0489 C   0  0  0  0  0  0  0  0  0  0  0  0
   23.0280    0.3772   -7.4182 C   0  0  0  0  0  0  0  0  0  0  0  0
   23.9576    0.0037   -6.4207 C   0  0  0  0  0  0  0  0  0  0  0  0
   24.7513   -0.3094   -5.5993 N   0  0  0  0  0  0  0  0  0  0  0  0
   23.3188    0.3890   -8.7637 C   0  0  0  0  0  0  0  0  0  0  0  0
   22.0316   -1.4030  -11.8689 C   0  0  0  0  0  0  0  0  0  0  0  0
  1  2  1  6
  2  3  1  1
  4  3  1  1
  4  5  1  0
  5  6  1  1
  6  7  1  1
  7  8  1  1
  8  9  1  0
  9 10  2  0
 10 11  1  0
 11 12  1  0
 11 13  2  0
 13 14  1  0
 14 15  1  0
 15 16  3  0
 14 17  2  0
 18  7  1  1
 18  4  1  0
 17  9  1  0
M  END
$$$$
