_rank6
     RDKit          3D

 18 19  0  0  0  0  0  0  0  0999 V2000
   18.2482   -2.6163  -13.0658 C   0  0  0  0  0  0  0  0  0  0  0  0
   19.2705   -1.8083  -12.3360 C   0  0  0  0  0  0  0  0  0  0  0  0
   18.9143   -1.5260  -10.9653 N   0  0  0  0  0  0  0  0  0  0  0  0
   20.0294   -0.9953  -10.2070 C   0  0  2  0  0  0  0  0  0  0  0  0
   20.2716    0.4471  -10.4816 C   0  0  0  0  0  0  0  0  0  0  0  0
   21.7190    0.6251  -10.0635 C   0  0  0  0  0  0  0  0  0  0  0  0
   22.4114   -0.6227  -10.5690 C   0  0  1  0  0  0  0  0  0  0  0  0
   23.4863   -0.9568   -9.7621 O   0  0  0  0  0  0  0  0  0  0  0  0
   24.8168   -0.7489   -9.9605 C   0  0  0  0  0  0  0  0  0  0  0  0
   25.4249   -1.1001  -11.1547 C   0  0  0  0  0  0  0  0  0  0  0  0
   26.7784   -0.8634  -11.2925 C   0  0  0  0  0  0  0  0  0  0  0  0
   27.3824   -1.2035  -12.4599 F   0  0  0  0  0  0  0  0  0  0  0  0
   27.5324   -0.2918  -10.2810 C   0  0  0  0  0  0  0  0  0  0  0  0
   26.9326    0.0640   -9.0793 C   0  0  0  0  0  0  0  0  0  0  0  0
   27.7155    0.6444   -8.0551 C   0  0  0  0  0  0  0  0  0  0  0  0
   28.3750    1.1468   -7.2094 N   0  0  0  0  0  0  0  0  0  0  0  0
   25.5830   -0.1795   -8.9605 C   0  0  0  0  0  0  0  0  0  0  0  0
   21.3267   -1.6798  -10.5621 C   0  0  0  0  0  0  0  0  0  0  0  0
  1  2  1  6
  2  3  1  1
  4  3  1  6
  4  5  1  0
  5  6  1  1
  6  7  1  1
  7  8  1  1
  8  9  1  0
  9 10  2  0
 10 11  1  0
 11 12  1  0
 11 13  2  0
 13 14  1  0
 14 15  1  0
 15 16  3  0
 14 17  2  0
 18  7  1  1
 18  4  1  0
 17  9  1  0
M  END
$$$$
