_rank9
     RDKit          3D

 18 19  0  0  0  0  0  0  0  0999 V2000
   16.7788   -1.2717  -10.6404 C   0  0  0  0  0  0  0  0  0  0  0  0
   18.1279   -0.6810  -10.3927 C   0  0  0  0  0  0  0  0  0  0  0  0
   19.2180   -1.5419  -10.7879 N   0  0  0  0  0  0  0  0  0  0  0  0
   20.5092   -0.9949  -10.4222 C   0  0  2  0  0  0  0  0  0  0  0  0
   20.8956    0.1691  -11.2650 C   0  0  0  0  0  0  0  0  0  0  0  0
   22.4039    0.2059  -11.1073 C   0  0  0  0  0  0  0  0  0  0  0  0
   22.8212   -1.2487  -11.1531 C   0  0  1  0  0  0  0  0  0  0  0  0
   23.9632   -1.4627  -10.3993 O   0  0  0  0  0  0  0  0  0  0  0  0
   25.1813   -0.8607  -10.4810 C   0  0  0  0  0  0  0  0  0  0  0  0
   25.7170   -0.4946  -11.7051 C   0  0  0  0  0  0  0  0  0  0  0  0
   26.9575    0.1120  -11.7196 C   0  0  0  0  0  0  0  0  0  0  0  0
   27.4896    0.4752  -12.9147 F   0  0  0  0  0  0  0  0  0  0  0  0
   27.6693    0.3598  -10.5577 C   0  0  0  0  0  0  0  0  0  0  0  0
   27.1415   -0.0035   -9.3249 C   0  0  0  0  0  0  0  0  0  0  0  0
   27.8808    0.2537   -8.1476 C   0  0  0  0  0  0  0  0  0  0  0  0
   28.4965    0.4498   -7.1551 N   0  0  0  0  0  0  0  0  0  0  0  0
   25.9042   -0.6068   -9.3303 C   0  0  0  0  0  0  0  0  0  0  0  0
   21.6196   -1.9984  -10.6162 C   0  0  0  0  0  0  0  0  0  0  0  0
  1  2  1  6
  2  3  1  1
  4  3  1  6
  4  5  1  0
  5  6  1  1
  6  7  1  1
  7  8  1  1
  8  9  1  0
  9 10  2  0
 10 11  1  0
 11 12  1  0
 11 13  2  0
 13 14  1  0
 14 15  1  0
 15 16  3  0
 14 17  2  0
 18  7  1  1
 18  4  1  0
 17  9  1  0
M  END
$$$$
