_rank5
     RDKit          3D

 18 19  0  0  0  0  0  0  0  0999 V2000
   16.9500   -1.2986  -12.1469 C   0  0  0  0  0  0  0  0  0  0  0  0
   17.9866   -1.3776  -11.0748 C   0  0  0  0  0  0  0  0  0  0  0  0
   19.2584   -1.8833  -11.5355 N   0  0  0  0  0  0  0  0  0  0  0  0
   20.3255   -1.6288  -10.5887 C   0  0  2  0  0  0  0  0  0  0  0  0
   20.3067   -0.2347  -10.0685 C   0  0  0  0  0  0  0  0  0  0  0  0
   21.7328   -0.0412   -9.5886 C   0  0  0  0  0  0  0  0  0  0  0  0
   22.5800   -0.7031  -10.6544 C   0  0  1  0  0  0  0  0  0  0  0  0
   23.7530   -1.2059  -10.1165 O   0  0  0  0  0  0  0  0  0  0  0  0
   25.0309   -0.7567  -10.2512 C   0  0  0  0  0  0  0  0  0  0  0  0
   25.6116   -0.6175  -11.5012 C   0  0  0  0  0  0  0  0  0  0  0  0
   26.9118   -0.1573  -11.5694 C   0  0  0  0  0  0  0  0  0  0  0  0
   27.4886   -0.0168  -12.7905 F   0  0  0  0  0  0  0  0  0  0  0  0
   27.6394    0.1639  -10.4356 C   0  0  0  0  0  0  0  0  0  0  0  0
   27.0666    0.0279   -9.1770 C   0  0  0  0  0  0  0  0  0  0  0  0
   27.8224    0.3575   -8.0286 C   0  0  0  0  0  0  0  0  0  0  0  0
   28.4503    0.6154   -7.0580 N   0  0  0  0  0  0  0  0  0  0  0  0
   25.7701   -0.4320   -9.1289 C   0  0  0  0  0  0  0  0  0  0  0  0
   21.6868   -1.7874  -11.2206 C   0  0  0  0  0  0  0  0  0  0  0  0
  1  2  1  6
  2  3  1  1
  4  3  1  6
  4  5  1  0
  5  6  1  1
  6  7  1  1
  7  8  1  1
  8  9  1  0
  9 10  2  0
 10 11  1  0
 11 12  1  0
 11 13  2  0
 13 14  1  0
 14 15  1  0
 15 16  3  0
 14 17  2  0
 18  7  1  1
 18  4  1  0
 17  9  1  0
M  END
$$$$
