_rank6
     RDKit          3D

 19 21  0  0  0  0  0  0  0  0999 V2000
   27.1715    1.5599   -8.2818 C   0  0  0  0  0  0  0  0  0  0  0  0
   27.0277   -0.2062   -8.3001 S   0  0  2  0  0  6  0  0  0  0  0  0
   26.2967   -0.7373   -7.1192 O   0  0  0  0  0  0  0  0  0  0  0  0
   28.3844   -0.8501   -8.3672 O   0  0  0  0  0  0  0  0  0  0  0  0
   26.1249   -0.7499   -9.7564 C   0  0  2  0  0  0  0  0  0  0  0  0
   26.8498   -0.2850  -11.0046 C   0  0  0  0  0  0  0  0  0  0  0  0
   25.8290    0.0661  -12.0663 C   0  0  0  0  0  0  0  0  0  0  0  0
   24.6532   -0.9104  -12.0015 C   0  0  0  0  0  0  0  0  0  0  0  0
   23.8442   -0.5109  -10.7827 C   0  0  1  0  0  0  0  0  0  0  0  0
   24.7437   -0.1301   -9.6486 C   0  0  0  0  0  0  0  0  0  0  0  0
   22.9718    0.5715  -11.1975 N   0  0  0  0  0  0  0  0  0  0  0  0
   21.7148    0.3101  -10.5676 C   0  0  0  0  0  0  0  0  0  0  0  0
   20.5853    1.1290  -10.4244 C   0  0  0  0  0  0  0  0  0  0  0  0
   19.5061    0.6061   -9.7638 C   0  0  0  0  0  0  0  0  0  0  0  0
   18.3938    1.3785   -9.6092 F   0  0  0  0  0  0  0  0  0  0  0  0
   19.5206   -0.6689   -9.2581 C   0  0  0  0  0  0  0  0  0  0  0  0
   20.6338   -1.4663   -9.4031 C   0  0  0  0  0  0  0  0  0  0  0  0
   21.7632   -0.9680  -10.0748 C   0  0  0  0  0  0  0  0  0  0  0  0
   22.9893   -1.5377  -10.3584 O   0  0  0  0  0  0  0  0  0  0  0  0
  2  1  1  1
  2  3  2  0
  2  4  2  0
  5  2  1  1
  6  5  1  6
  7  6  1  1
  8  7  1  6
  8  9  1  0
 10  9  1  1
  9 11  1  6
 11 12  1  0
 12 13  2  0
 13 14  1  0
 14 15  1  0
 14 16  2  0
 16 17  1  0
 17 18  2  0
 18 19  1  0
 10  5  1  0
 18 12  1  0
  9 19  1  0
M  END
$$$$
