_rank12
     RDKit          3D

 19 21  0  0  0  0  0  0  0  0999 V2000
   28.0330    0.8220   -8.4294 C   0  0  0  0  0  0  0  0  0  0  0  0
   26.8393   -0.4862   -8.3677 S   0  0  2  0  0  6  0  0  0  0  0  0
   25.7441   -0.2221   -7.3972 O   0  0  0  0  0  0  0  0  0  0  0  0
   27.4980   -1.7919   -8.0201 O   0  0  0  0  0  0  0  0  0  0  0  0
   26.0655   -0.7094   -9.9748 C   0  0  2  0  0  0  0  0  0  0  0  0
   26.8055    0.1127  -11.0121 C   0  0  0  0  0  0  0  0  0  0  0  0
   25.8111    0.6424  -12.0235 C   0  0  0  0  0  0  0  0  0  0  0  0
   24.7297   -0.4066  -12.2892 C   0  0  0  0  0  0  0  0  0  0  0  0
   23.8268   -0.3946  -11.0709 C   0  0  1  0  0  0  0  0  0  0  0  0
   24.6288   -0.2465   -9.8158 C   0  0  0  0  0  0  0  0  0  0  0  0
   22.8792    0.6867  -11.2646 N   0  0  0  0  0  0  0  0  0  0  0  0
   21.6220    0.1769  -10.8121 C   0  0  0  0  0  0  0  0  0  0  0  0
   20.4153    0.8422  -10.5512 C   0  0  0  0  0  0  0  0  0  0  0  0
   19.3577    0.0862  -10.1214 C   0  0  0  0  0  0  0  0  0  0  0  0
   18.1719    0.7051   -9.8598 F   0  0  0  0  0  0  0  0  0  0  0  0
   19.4657   -1.2705   -9.9499 C   0  0  0  0  0  0  0  0  0  0  0  0
   20.6543   -1.9158  -10.2084 C   0  0  0  0  0  0  0  0  0  0  0  0
   21.7645   -1.1769  -10.6514 C   0  0  0  0  0  0  0  0  0  0  0  0
   23.0512   -1.5587  -10.9788 O   0  0  0  0  0  0  0  0  0  0  0  0
  2  1  1  6
  2  3  2  0
  2  4  2  0
  5  2  1  1
  6  5  1  6
  7  6  1  1
  8  7  1  6
  8  9  1  0
 10  9  1  1
  9 11  1  6
 11 12  1  0
 12 13  2  0
 13 14  1  0
 14 15  1  0
 14 16  2  0
 16 17  1  0
 17 18  2  0
 18 19  1  0
 10  5  1  0
 18 12  1  0
  9 19  1  0
M  END
$$$$
