_rank7
     RDKit          3D

 19 21  0  0  0  0  0  0  0  0999 V2000
   27.0481    1.2912   -8.1083 C   0  0  0  0  0  0  0  0  0  0  0  0
   27.0152   -0.4410   -8.4803 S   0  0  2  0  0  6  0  0  0  0  0  0
   26.2766   -1.2351   -7.4631 O   0  0  0  0  0  0  0  0  0  0  0  0
   28.4109   -0.9846   -8.6078 O   0  0  0  0  0  0  0  0  0  0  0  0
   26.2013   -0.7317  -10.0565 C   0  0  2  0  0  0  0  0  0  0  0  0
   26.9021    0.0616  -11.1424 C   0  0  0  0  0  0  0  0  0  0  0  0
   25.8736    0.5421  -12.1444 C   0  0  0  0  0  0  0  0  0  0  0  0
   24.7996   -0.5291  -12.3427 C   0  0  0  0  0  0  0  0  0  0  0  0
   23.9298   -0.4844  -11.1012 C   0  0  1  0  0  0  0  0  0  0  0  0
   24.7634   -0.2812   -9.8748 C   0  0  0  0  0  0  0  0  0  0  0  0
   22.9630    0.5774  -11.3073 N   0  0  0  0  0  0  0  0  0  0  0  0
   21.7254    0.0686  -10.8025 C   0  0  0  0  0  0  0  0  0  0  0  0
   20.5174    0.7279  -10.5325 C   0  0  0  0  0  0  0  0  0  0  0  0
   19.4821   -0.0252  -10.0471 C   0  0  0  0  0  0  0  0  0  0  0  0
   18.2956    0.5880   -9.7752 F   0  0  0  0  0  0  0  0  0  0  0  0
   19.6127   -1.3734   -9.8302 C   0  0  0  0  0  0  0  0  0  0  0  0
   20.8025   -2.0128  -10.0981 C   0  0  0  0  0  0  0  0  0  0  0  0
   21.8904   -1.2766  -10.5975 C   0  0  0  0  0  0  0  0  0  0  0  0
   23.1727   -1.6540  -10.9463 O   0  0  0  0  0  0  0  0  0  0  0  0
  2  1  1  1
  2  3  2  0
  2  4  2  0
  5  2  1  1
  6  5  1  6
  7  6  1  1
  8  7  1  6
  8  9  1  0
 10  9  1  1
  9 11  1  6
 11 12  1  0
 12 13  2  0
 13 14  1  0
 14 15  1  0
 14 16  2  0
 16 17  1  0
 17 18  2  0
 18 19  1  0
 10  5  1  0
 18 12  1  0
  9 19  1  0
M  END
$$$$
