_rank18
     RDKit          3D

 19 21  0  0  0  0  0  0  0  0999 V2000
   28.2670   -0.5598   -8.7124 C   0  0  0  0  0  0  0  0  0  0  0  0
   26.6154    0.0686   -8.8440 S   0  0  2  0  0  6  0  0  0  0  0  0
   26.5744    1.5125   -9.1970 O   0  0  0  0  0  0  0  0  0  0  0  0
   25.8612   -0.1440   -7.5612 O   0  0  0  0  0  0  0  0  0  0  0  0
   25.7091   -0.8050  -10.1273 C   0  0  2  0  0  0  0  0  0  0  0  0
   26.4124   -0.6220  -11.4582 C   0  0  0  0  0  0  0  0  0  0  0  0
   25.3746   -0.5369  -12.5574 C   0  0  0  0  0  0  0  0  0  0  0  0
   24.2187   -1.4931  -12.2574 C   0  0  0  0  0  0  0  0  0  0  0  0
   23.4141   -0.8423  -11.1489 C   0  0  1  0  0  0  0  0  0  0  0  0
   24.3172   -0.2001  -10.1427 C   0  0  0  0  0  0  0  0  0  0  0  0
   22.5167    0.1036  -11.7850 N   0  0  0  0  0  0  0  0  0  0  0  0
   21.2714   -0.0298  -11.0948 C   0  0  0  0  0  0  0  0  0  0  0  0
   20.1275    0.7813  -11.1243 C   0  0  0  0  0  0  0  0  0  0  0  0
   19.0653    0.4031  -10.3476 C   0  0  0  0  0  0  0  0  0  0  0  0
   17.9398    1.1717  -10.3557 F   0  0  0  0  0  0  0  0  0  0  0  0
   19.1097   -0.7244   -9.5675 C   0  0  0  0  0  0  0  0  0  0  0  0
   20.2368   -1.5151   -9.5445 C   0  0  0  0  0  0  0  0  0  0  0  0
   21.3495   -1.1626  -10.3271 C   0  0  0  0  0  0  0  0  0  0  0  0
   22.5837   -1.7609  -10.4919 O   0  0  0  0  0  0  0  0  0  0  0  0
  2  1  1  1
  2  3  2  0
  2  4  2  0
  5  2  1  1
  6  5  1  6
  7  6  1  1
  8  7  1  6
  8  9  1  0
 10  9  1  1
  9 11  1  6
 11 12  1  0
 12 13  2  0
 13 14  1  0
 14 15  1  0
 14 16  2  0
 16 17  1  0
 17 18  2  0
 18 19  1  0
 10  5  1  0
 18 12  1  0
  9 19  1  0
M  END
$$$$
