_rank9
     RDKit          3D

 19 21  0  0  0  0  0  0  0  0999 V2000
   26.7158    1.1710   -8.0309 C   0  0  0  0  0  0  0  0  0  0  0  0
   27.0276   -0.4610   -8.6467 S   0  0  2  0  0  6  0  0  0  0  0  0
   26.5663   -1.5259   -7.7172 O   0  0  0  0  0  0  0  0  0  0  0  0
   28.4922   -0.6541   -8.9251 O   0  0  0  0  0  0  0  0  0  0  0  0
   26.1668   -0.7224  -10.2030 C   0  0  2  0  0  0  0  0  0  0  0  0
   26.8789    0.0323  -11.3088 C   0  0  0  0  0  0  0  0  0  0  0  0
   25.8517    0.5540  -12.2912 C   0  0  0  0  0  0  0  0  0  0  0  0
   24.7258   -0.4680  -12.4594 C   0  0  0  0  0  0  0  0  0  0  0  0
   23.8865   -0.3771  -11.1995 C   0  0  1  0  0  0  0  0  0  0  0  0
   24.7553   -0.2058   -9.9928 C   0  0  0  0  0  0  0  0  0  0  0  0
   22.9647    0.7267  -11.3912 N   0  0  0  0  0  0  0  0  0  0  0  0
   21.7167    0.2777  -10.8565 C   0  0  0  0  0  0  0  0  0  0  0  0
   20.5462    0.9929  -10.5643 C   0  0  0  0  0  0  0  0  0  0  0  0
   19.4886    0.2905  -10.0518 C   0  0  0  0  0  0  0  0  0  0  0  0
   18.3376    0.9587   -9.7581 F   0  0  0  0  0  0  0  0  0  0  0  0
   19.5624   -1.0611   -9.8295 C   0  0  0  0  0  0  0  0  0  0  0  0
   20.7156   -1.7556  -10.1192 C   0  0  0  0  0  0  0  0  0  0  0  0
   21.8246   -1.0725  -10.6467 C   0  0  0  0  0  0  0  0  0  0  0  0
   23.0805   -1.5100  -11.0210 O   0  0  0  0  0  0  0  0  0  0  0  0
  2  1  1  1
  2  3  2  0
  2  4  2  0
  5  2  1  1
  6  5  1  6
  7  6  1  1
  8  7  1  6
  8  9  1  0
 10  9  1  1
  9 11  1  6
 11 12  1  0
 12 13  2  0
 13 14  1  0
 14 15  1  0
 14 16  2  0
 16 17  1  0
 17 18  2  0
 18 19  1  0
 10  5  1  0
 18 12  1  0
  9 19  1  0
M  END
$$$$
