_rank17
     RDKit          3D

 19 21  0  0  0  0  0  0  0  0999 V2000
   18.8518    0.5054   -8.9129 C   0  0  0  0  0  0  0  0  0  0  0  0
   19.5521    1.1543  -10.4058 S   0  0  2  0  0  6  0  0  0  0  0  0
   20.3479    2.3898  -10.1798 O   0  0  0  0  0  0  0  0  0  0  0  0
   18.4774    1.4415  -11.4169 O   0  0  0  0  0  0  0  0  0  0  0  0
   20.6600   -0.0463  -11.1560 C   0  0  2  0  0  0  0  0  0  0  0  0
   20.0050   -1.4139  -11.1485 C   0  0  0  0  0  0  0  0  0  0  0  0
   21.0678   -2.4690  -10.9254 C   0  0  0  0  0  0  0  0  0  0  0  0
   22.3541   -2.0747  -11.6538 C   0  0  0  0  0  0  0  0  0  0  0  0
   22.9765   -0.9630  -10.8314 C   0  0  1  0  0  0  0  0  0  0  0  0
   21.9259   -0.0282  -10.3189 C   0  0  0  0  0  0  0  0  0  0  0  0
   23.7292   -1.6018   -9.7683 N   0  0  0  0  0  0  0  0  0  0  0  0
   24.9418   -0.8519   -9.6567 C   0  0  0  0  0  0  0  0  0  0  0  0
   25.9289   -0.8682   -8.6606 C   0  0  0  0  0  0  0  0  0  0  0  0
   26.9990   -0.0289   -8.8185 C   0  0  0  0  0  0  0  0  0  0  0  0
   27.9744   -0.0228   -7.8665 F   0  0  0  0  0  0  0  0  0  0  0  0
   27.1094    0.7995   -9.9063 C   0  0  0  0  0  0  0  0  0  0  0  0
   26.1356    0.8092  -10.8797 C   0  0  0  0  0  0  0  0  0  0  0  0
   25.0205   -0.0371  -10.7561 C   0  0  0  0  0  0  0  0  0  0  0  0
   23.9178   -0.2285  -11.5660 O   0  0  0  0  0  0  0  0  0  0  0  0
  2  1  1  1
  2  3  2  0
  2  4  2  0
  5  2  1  1
  6  5  1  6
  7  6  1  1
  8  7  1  6
  8  9  1  0
 10  9  1  1
  9 11  1  1
 11 12  1  0
 12 13  2  0
 13 14  1  0
 14 15  1  0
 14 16  2  0
 16 17  1  0
 17 18  2  0
 18 19  1  0
 10  5  1  0
 18 12  1  0
  9 19  1  0
M  END
$$$$
