_rank1
     RDKit          3D

 19 21  0  0  0  0  0  0  0  0999 V2000
   27.4169   -2.1235   -7.8190 C   0  0  0  0  0  0  0  0  0  0  0  0
   27.3531   -0.5247   -8.5804 S   0  0  2  0  0  6  0  0  0  0  0  0
   28.7016    0.0546   -8.8187 O   0  0  0  0  0  0  0  0  0  0  0  0
   26.5497    0.4316   -7.7438 O   0  0  0  0  0  0  0  0  0  0  0  0
   26.5396   -0.6208  -10.1805 C   0  0  2  0  0  0  0  0  0  0  0  0
   27.1765    0.3725  -11.1331 C   0  0  0  0  0  0  0  0  0  0  0  0
   26.1081    0.9351  -12.0466 C   0  0  0  0  0  0  0  0  0  0  0  0
   25.1002   -0.1587  -12.4047 C   0  0  0  0  0  0  0  0  0  0  0  0
   24.2446   -0.3601  -11.1689 C   0  0  1  0  0  0  0  0  0  0  0  0
   25.0788   -0.2954   -9.9279 C   0  0  0  0  0  0  0  0  0  0  0  0
   23.2113    0.6575  -11.2067 N   0  0  0  0  0  0  0  0  0  0  0  0
   22.0139    0.0001  -10.7832 C   0  0  0  0  0  0  0  0  0  0  0  0
   20.7707    0.5324  -10.4118 C   0  0  0  0  0  0  0  0  0  0  0  0
   19.7901   -0.3501  -10.0455 C   0  0  0  0  0  0  0  0  0  0  0  0
   18.5712    0.1379   -9.6795 F   0  0  0  0  0  0  0  0  0  0  0  0
   20.0068   -1.7046  -10.0392 C   0  0  0  0  0  0  0  0  0  0  0  0
   21.2306   -2.2188  -10.4053 C   0  0  0  0  0  0  0  0  0  0  0  0
   22.2645   -1.3475  -10.7882 C   0  0  0  0  0  0  0  0  0  0  0  0
   23.5634   -1.5851  -11.1941 O   0  0  0  0  0  0  0  0  0  0  0  0
  2  1  1  1
  2  3  2  0
  2  4  2  0
  5  2  1  1
  6  5  1  6
  7  6  1  1
  8  7  1  6
  8  9  1  0
 10  9  1  1
  9 11  1  1
 11 12  1  0
 12 13  2  0
 13 14  1  0
 14 15  1  0
 14 16  2  0
 16 17  1  0
 17 18  2  0
 18 19  1  0
 10  5  1  0
 18 12  1  0
  9 19  1  0
M  END
$$$$
