_rank8
     RDKit          3D

 19 21  0  0  0  0  0  0  0  0999 V2000
   26.6656    1.3538   -7.9020 C   0  0  0  0  0  0  0  0  0  0  0  0
   27.0420   -0.2474   -8.5611 S   0  0  2  0  0  6  0  0  0  0  0  0
   26.5899   -1.3551   -7.6782 O   0  0  0  0  0  0  0  0  0  0  0  0
   28.5183   -0.3881   -8.8073 O   0  0  0  0  0  0  0  0  0  0  0  0
   26.2288   -0.4831  -10.1469 C   0  0  2  0  0  0  0  0  0  0  0  0
   26.9384    0.3368  -11.2069 C   0  0  0  0  0  0  0  0  0  0  0  0
   25.9161    0.8562  -12.1957 C   0  0  0  0  0  0  0  0  0  0  0  0
   24.8335   -0.1994  -12.4283 C   0  0  0  0  0  0  0  0  0  0  0  0
   23.9616   -0.1849  -11.1875 C   0  0  1  0  0  0  0  0  0  0  0  0
   24.7944   -0.0262   -9.9540 C   0  0  0  0  0  0  0  0  0  0  0  0
   23.0042    0.8908  -11.3630 N   0  0  0  0  0  0  0  0  0  0  0  0
   21.7614    0.3775  -10.8760 C   0  0  0  0  0  0  0  0  0  0  0  0
   20.5584    1.0385  -10.5882 C   0  0  0  0  0  0  0  0  0  0  0  0
   19.5158    0.2799  -10.1277 C   0  0  0  0  0  0  0  0  0  0  0  0
   18.3340    0.8946   -9.8394 F   0  0  0  0  0  0  0  0  0  0  0  0
   19.6346   -1.0753   -9.9517 C   0  0  0  0  0  0  0  0  0  0  0  0
   20.8195   -1.7164  -10.2368 C   0  0  0  0  0  0  0  0  0  0  0  0
   21.9145   -0.9747  -10.7117 C   0  0  0  0  0  0  0  0  0  0  0  0
   23.1943   -1.3522  -11.0696 O   0  0  0  0  0  0  0  0  0  0  0  0
  2  1  1  1
  2  3  2  0
  2  4  2  0
  5  2  1  1
  6  5  1  6
  7  6  1  1
  8  7  1  6
  8  9  1  0
 10  9  1  1
  9 11  1  6
 11 12  1  0
 12 13  2  0
 13 14  1  0
 14 15  1  0
 14 16  2  0
 16 17  1  0
 17 18  2  0
 18 19  1  0
 10  5  1  0
 18 12  1  0
  9 19  1  0
M  END
$$$$
