_rank2
     RDKit          3D

 19 21  0  0  0  0  0  0  0  0999 V2000
   27.0982    1.3960   -8.0354 C   0  0  0  0  0  0  0  0  0  0  0  0
   27.0931   -0.2784   -8.6155 S   0  0  2  0  0  6  0  0  0  0  0  0
   26.3767   -1.2040   -7.6985 O   0  0  0  0  0  0  0  0  0  0  0  0
   28.4972   -0.7765   -8.8161 O   0  0  0  0  0  0  0  0  0  0  0  0
   26.2722   -0.3901  -10.2108 C   0  0  2  0  0  0  0  0  0  0  0  0
   27.0015    0.4781  -11.2177 C   0  0  0  0  0  0  0  0  0  0  0  0
   25.9917    1.0864  -12.1679 C   0  0  0  0  0  0  0  0  0  0  0  0
   24.8818    0.0764  -12.4651 C   0  0  0  0  0  0  0  0  0  0  0  0
   24.0122    0.0330  -11.2234 C   0  0  1  0  0  0  0  0  0  0  0  0
   24.8503    0.0902   -9.9847 C   0  0  0  0  0  0  0  0  0  0  0  0
   23.0827    1.1421  -11.3263 N   0  0  0  0  0  0  0  0  0  0  0  0
   21.8276    0.6305  -10.8699 C   0  0  0  0  0  0  0  0  0  0  0  0
   20.6425    1.3023  -10.5365 C   0  0  0  0  0  0  0  0  0  0  0  0
   19.5811    0.5426  -10.1230 C   0  0  0  0  0  0  0  0  0  0  0  0
   18.4160    1.1675   -9.7922 F   0  0  0  0  0  0  0  0  0  0  0  0
   19.6651   -0.8238  -10.0352 C   0  0  0  0  0  0  0  0  0  0  0  0
   20.8326   -1.4754  -10.3645 C   0  0  0  0  0  0  0  0  0  0  0  0
   21.9459   -0.7329  -10.7937 C   0  0  0  0  0  0  0  0  0  0  0  0
   23.2151   -1.1193  -11.1789 O   0  0  0  0  0  0  0  0  0  0  0  0
  2  1  1  1
  2  3  2  0
  2  4  2  0
  5  2  1  1
  6  5  1  6
  7  6  1  1
  8  7  1  6
  8  9  1  0
 10  9  1  1
  9 11  1  6
 11 12  1  0
 12 13  2  0
 13 14  1  0
 14 15  1  0
 14 16  2  0
 16 17  1  0
 17 18  2  0
 18 19  1  0
 10  5  1  0
 18 12  1  0
  9 19  1  0
M  END
$$$$
