_rank5
     RDKit          3D

 19 21  0  0  0  0  0  0  0  0999 V2000
   26.0981    0.6436   -7.5040 C   0  0  0  0  0  0  0  0  0  0  0  0
   27.1557   -0.2703   -8.5932 S   0  0  2  0  0  6  0  0  0  0  0  0
   27.5454   -1.5949   -8.0413 O   0  0  0  0  0  0  0  0  0  0  0  0
   28.3986    0.5136   -8.9101 O   0  0  0  0  0  0  0  0  0  0  0  0
   26.3290   -0.5834  -10.1584 C   0  0  2  0  0  0  0  0  0  0  0  0
   27.0132    0.2038  -11.2591 C   0  0  0  0  0  0  0  0  0  0  0  0
   25.9716    0.6661  -12.2560 C   0  0  0  0  0  0  0  0  0  0  0  0
   24.9039   -0.4152  -12.4329 C   0  0  0  0  0  0  0  0  0  0  0  0
   24.0458   -0.3641  -11.1835 C   0  0  1  0  0  0  0  0  0  0  0  0
   24.8894   -0.1420   -9.9674 C   0  0  0  0  0  0  0  0  0  0  0  0
   23.0689    0.6882  -11.3912 N   0  0  0  0  0  0  0  0  0  0  0  0
   21.8401    0.1754  -10.8693 C   0  0  0  0  0  0  0  0  0  0  0  0
   20.6298    0.8283  -10.5944 C   0  0  0  0  0  0  0  0  0  0  0  0
   19.6049    0.0725  -10.0913 C   0  0  0  0  0  0  0  0  0  0  0  0
   18.4164    0.6795   -9.8143 F   0  0  0  0  0  0  0  0  0  0  0  0
   19.7479   -1.2723   -9.8618 C   0  0  0  0  0  0  0  0  0  0  0  0
   20.9399   -1.9055  -10.1346 C   0  0  0  0  0  0  0  0  0  0  0  0
   22.0173   -1.1664  -10.6521 C   0  0  0  0  0  0  0  0  0  0  0  0
   23.2991   -1.5377  -11.0093 O   0  0  0  0  0  0  0  0  0  0  0  0
  2  1  1  1
  2  3  2  0
  2  4  2  0
  5  2  1  1
  6  5  1  6
  7  6  1  1
  8  7  1  6
  8  9  1  0
 10  9  1  1
  9 11  1  6
 11 12  1  0
 12 13  2  0
 13 14  1  0
 14 15  1  0
 14 16  2  0
 16 17  1  0
 17 18  2  0
 18 19  1  0
 10  5  1  0
 18 12  1  0
  9 19  1  0
M  END
$$$$
