_rank19
     RDKit          3D

 19 21  0  0  0  0  0  0  0  0999 V2000
   19.4666   -1.4652  -11.1972 C   0  0  0  0  0  0  0  0  0  0  0  0
   20.8915   -1.3207  -10.1537 S   0  0  2  0  0  6  0  0  0  0  0  0
   21.4053   -2.6380   -9.6939 O   0  0  0  0  0  0  0  0  0  0  0  0
   20.5884   -0.4669   -8.9542 O   0  0  0  0  0  0  0  0  0  0  0  0
   22.2377   -0.5171  -11.0332 C   0  0  2  0  0  0  0  0  0  0  0  0
   22.1868   -0.9027  -12.4989 C   0  0  0  0  0  0  0  0  0  0  0  0
   23.6006   -1.0175  -13.0285 C   0  0  0  0  0  0  0  0  0  0  0  0
   24.4827    0.0608  -12.3964 C   0  0  0  0  0  0  0  0  0  0  0  0
   24.7464   -0.3950  -10.9742 C   0  0  1  0  0  0  0  0  0  0  0  0
   23.5163   -0.9991  -10.3725 C   0  0  0  0  0  0  0  0  0  0  0  0
   25.8590   -1.3242  -11.0335 N   0  0  0  0  0  0  0  0  0  0  0  0
   26.6773   -1.0109   -9.9033 C   0  0  0  0  0  0  0  0  0  0  0  0
   27.7447   -1.7197   -9.3331 C   0  0  0  0  0  0  0  0  0  0  0  0
   28.3533   -1.1702   -8.2366 C   0  0  0  0  0  0  0  0  0  0  0  0
   29.3937   -1.8362   -7.6607 F   0  0  0  0  0  0  0  0  0  0  0  0
   27.9411    0.0272   -7.7095 C   0  0  0  0  0  0  0  0  0  0  0  0
   26.8921    0.7166   -8.2756 C   0  0  0  0  0  0  0  0  0  0  0  0
   26.2399    0.1876   -9.4024 C   0  0  0  0  0  0  0  0  0  0  0  0
   25.1817    0.6570  -10.1563 O   0  0  0  0  0  0  0  0  0  0  0  0
  2  1  1  6
  2  3  2  0
  2  4  2  0
  5  2  1  1
  6  5  1  6
  7  6  1  1
  8  7  1  6
  8  9  1  0
 10  9  1  1
  9 11  1  6
 11 12  1  0
 12 13  2  0
 13 14  1  0
 14 15  1  0
 14 16  2  0
 16 17  1  0
 17 18  2  0
 18 19  1  0
 10  5  1  0
 18 12  1  0
  9 19  1  0
M  END
$$$$
