_rank4
     RDKit          3D

 19 21  0  0  0  0  0  0  0  0999 V2000
   26.0345   -0.4315   -7.1015 C   0  0  0  0  0  0  0  0  0  0  0  0
   27.2008   -0.3398   -8.4324 S   0  0  2  0  0  6  0  0  0  0  0  0
   28.2313   -1.4100   -8.3706 O   0  0  0  0  0  0  0  0  0  0  0  0
   27.8846    0.9988   -8.4497 O   0  0  0  0  0  0  0  0  0  0  0  0
   26.3661   -0.5142  -10.0149 C   0  0  2  0  0  0  0  0  0  0  0  0
   27.0119    0.4060  -11.0324 C   0  0  0  0  0  0  0  0  0  0  0  0
   25.9445    0.9357  -11.9665 C   0  0  0  0  0  0  0  0  0  0  0  0
   24.9097   -0.1556  -12.2471 C   0  0  0  0  0  0  0  0  0  0  0  0
   24.0651   -0.2639  -10.9921 C   0  0  1  0  0  0  0  0  0  0  0  0
   24.9156   -0.1427   -9.7665 C   0  0  0  0  0  0  0  0  0  0  0  0
   23.0529    0.7717  -11.0800 N   0  0  0  0  0  0  0  0  0  0  0  0
   21.8473    0.1669  -10.6045 C   0  0  0  0  0  0  0  0  0  0  0  0
   20.6201    0.7473  -10.2524 C   0  0  0  0  0  0  0  0  0  0  0  0
   19.6258   -0.0902   -9.8229 C   0  0  0  0  0  0  0  0  0  0  0  0
   18.4220    0.4451   -9.4738 F   0  0  0  0  0  0  0  0  0  0  0  0
   19.8142   -1.4463   -9.7373 C   0  0  0  0  0  0  0  0  0  0  0  0
   21.0224   -2.0079  -10.0850 C   0  0  0  0  0  0  0  0  0  0  0  0
   22.0696   -1.1836  -10.5310 C   0  0  0  0  0  0  0  0  0  0  0  0
   23.3582   -1.4731  -10.9360 O   0  0  0  0  0  0  0  0  0  0  0  0
  2  1  1  1
  2  3  2  0
  2  4  2  0
  5  2  1  1
  6  5  1  6
  7  6  1  1
  8  7  1  6
  8  9  1  0
 10  9  1  1
  9 11  1  6
 11 12  1  0
 12 13  2  0
 13 14  1  0
 14 15  1  0
 14 16  2  0
 16 17  1  0
 17 18  2  0
 18 19  1  0
 10  5  1  0
 18 12  1  0
  9 19  1  0
M  END
$$$$
