_rank4
     RDKit          3D

 16 16  0  0  0  0  0  0  0  0999 V2000
   27.7378   -1.4232   -8.7017 C   0  0  0  0  0  0  0  0  0  0  0  0
   27.0331   -0.2423   -9.0528 O   0  0  0  0  0  0  0  0  0  0  0  0
   25.7527   -0.3864   -9.5670 C   0  0  0  0  0  0  0  0  0  0  0  0
   24.6962   -0.8824   -8.7968 C   0  0  0  0  0  0  0  0  0  0  0  0
   23.4380   -1.0031   -9.3684 C   0  0  0  0  0  0  0  0  0  0  0  0
   23.2121   -0.6426  -10.6816 C   0  0  0  0  0  0  0  0  0  0  0  0
   21.8573   -0.7693  -11.3079 C   0  0  2  0  0  0  0  0  0  0  0  0
   21.1061    0.4068  -10.8977 N   0  0  0  0  0  0  0  0  0  0  0  0
   21.1895   -1.9822  -10.8920 C   0  0  0  0  0  0  0  0  0  0  0  0
   20.6694   -2.9605  -10.5562 N   0  0  0  0  0  0  0  0  0  0  0  0
   24.2727   -0.1558  -11.4195 C   0  0  0  0  0  0  0  0  0  0  0  0
   25.5516   -0.0206  -10.8780 C   0  0  0  0  0  0  0  0  0  0  0  0
   26.8700    0.5857  -11.7993 S   0  0  2  0  0  6  0  0  0  0  0  0
   28.0452   -0.6588  -12.2557 C   0  0  0  0  0  0  0  0  0  0  0  0
   27.6082    1.6065  -10.9673 O   0  0  0  0  0  0  0  0  0  0  0  0
   26.4453    1.2859  -13.0584 O   0  0  0  0  0  0  0  0  0  0  0  0
  1  2  1  6
  2  3  1  0
  3  4  2  0
  4  5  1  0
  5  6  2  0
  6  7  1  0
  7  8  1  1
  7  9  1  0
  9 10  3  0
  6 11  1  0
 11 12  2  0
 13 12  1  1
 14 13  1  6
 13 15  2  0
 13 16  2  0
 12  3  1  0
M  END
$$$$
