_rank9
     RDKit          3D

 16 16  0  0  0  0  0  0  0  0999 V2000
   27.5683   -1.9692   -9.8688 C   0  0  0  0  0  0  0  0  0  0  0  0
   26.7163   -0.8771   -9.5591 O   0  0  0  0  0  0  0  0  0  0  0  0
   25.3555   -1.0428   -9.7718 C   0  0  0  0  0  0  0  0  0  0  0  0
   24.6745   -2.1909   -9.3551 C   0  0  0  0  0  0  0  0  0  0  0  0
   23.3128   -2.2976   -9.5970 C   0  0  0  0  0  0  0  0  0  0  0  0
   22.6204   -1.2918  -10.2407 C   0  0  0  0  0  0  0  0  0  0  0  0
   21.1501   -1.3976  -10.5067 C   0  0  2  0  0  0  0  0  0  0  0  0
   20.4984   -1.3936   -9.2063 N   0  0  0  0  0  0  0  0  0  0  0  0
   20.8273   -2.5982  -11.2447 C   0  0  0  0  0  0  0  0  0  0  0  0
   20.5847   -3.5643  -11.8347 N   0  0  0  0  0  0  0  0  0  0  0  0
   23.3170   -0.1692  -10.6416 C   0  0  0  0  0  0  0  0  0  0  0  0
   24.6865   -0.0273  -10.4153 C   0  0  0  0  0  0  0  0  0  0  0  0
   25.5509    1.3717  -10.9156 S   0  0  2  0  0  6  0  0  0  0  0  0
   26.7783    1.0407  -12.1496 C   0  0  0  0  0  0  0  0  0  0  0  0
   26.2711    1.9449   -9.7190 O   0  0  0  0  0  0  0  0  0  0  0  0
   24.6645    2.4626  -11.4449 O   0  0  0  0  0  0  0  0  0  0  0  0
  1  2  1  6
  2  3  1  0
  3  4  2  0
  4  5  1  0
  5  6  2  0
  6  7  1  0
  7  8  1  1
  7  9  1  0
  9 10  3  0
  6 11  1  0
 11 12  2  0
 13 12  1  1
 14 13  1  6
 13 15  2  0
 13 16  2  0
 12  3  1  0
M  END
$$$$
