_rank11
     RDKit          3D

 16 16  0  0  0  0  0  0  0  0999 V2000
   21.7763    0.3103  -11.5256 C   0  0  0  0  0  0  0  0  0  0  0  0
   23.1533    0.4347  -11.8465 O   0  0  0  0  0  0  0  0  0  0  0  0
   24.0744    0.1403  -10.8519 C   0  0  0  0  0  0  0  0  0  0  0  0
   23.6927   -0.4287   -9.6329 C   0  0  0  0  0  0  0  0  0  0  0  0
   24.6613   -0.6999   -8.6776 C   0  0  0  0  0  0  0  0  0  0  0  0
   25.9925   -0.4180   -8.9098 C   0  0  0  0  0  0  0  0  0  0  0  0
   27.0458   -0.7069   -7.8846 C   0  0  2  0  0  0  0  0  0  0  0  0
   26.4125   -0.5296   -6.5872 N   0  0  0  0  0  0  0  0  0  0  0  0
   28.1853    0.1709   -8.0297 C   0  0  0  0  0  0  0  0  0  0  0  0
   29.0909    0.8805   -8.1594 N   0  0  0  0  0  0  0  0  0  0  0  0
   26.3420    0.1436  -10.1217 C   0  0  0  0  0  0  0  0  0  0  0  0
   25.3952    0.4300  -11.1058 C   0  0  0  0  0  0  0  0  0  0  0  0
   25.8336    1.1293  -12.6136 S   0  0  2  0  0  6  0  0  0  0  0  0
   25.6669    0.0182  -13.9833 C   0  0  0  0  0  0  0  0  0  0  0  0
   27.2858    1.5372  -12.5500 O   0  0  0  0  0  0  0  0  0  0  0  0
   25.0544    2.3701  -12.9443 O   0  0  0  0  0  0  0  0  0  0  0  0
  1  2  1  6
  2  3  1  0
  3  4  2  0
  4  5  1  0
  5  6  2  0
  6  7  1  0
  7  8  1  1
  7  9  1  0
  9 10  3  0
  6 11  1  0
 11 12  2  0
 13 12  1  1
 14 13  1  6
 13 15  2  0
 13 16  2  0
 12  3  1  0
M  END
$$$$
