_rank15
     RDKit          3D

 16 16  0  0  0  0  0  0  0  0999 V2000
   22.4882   -1.4615  -13.1309 C   0  0  0  0  0  0  0  0  0  0  0  0
   23.1479   -0.2894  -12.6774 O   0  0  0  0  0  0  0  0  0  0  0  0
   24.2245   -0.4494  -11.8175 C   0  0  0  0  0  0  0  0  0  0  0  0
   25.5476   -0.3667  -12.2627 C   0  0  0  0  0  0  0  0  0  0  0  0
   26.5815   -0.5359  -11.3535 C   0  0  0  0  0  0  0  0  0  0  0  0
   26.3267   -0.7841  -10.0198 C   0  0  0  0  0  0  0  0  0  0  0  0
   27.4361   -0.9684   -9.0303 C   0  0  2  0  0  0  0  0  0  0  0  0
   27.0379   -2.0726   -8.1712 N   0  0  0  0  0  0  0  0  0  0  0  0
   27.6664    0.2321   -8.2584 C   0  0  0  0  0  0  0  0  0  0  0  0
   27.8353    1.1926   -7.6345 N   0  0  0  0  0  0  0  0  0  0  0  0
   25.0114   -0.8608   -9.6068 C   0  0  0  0  0  0  0  0  0  0  0  0
   23.9462   -0.6959  -10.4928 C   0  0  0  0  0  0  0  0  0  0  0  0
   22.3097   -0.7920   -9.9756 S   0  0  2  0  0  6  0  0  0  0  0  0
   21.6764   -2.4460   -9.9370 C   0  0  0  0  0  0  0  0  0  0  0  0
   21.4531   -0.0135  -10.9447 O   0  0  0  0  0  0  0  0  0  0  0  0
   22.0769   -0.1901   -8.6193 O   0  0  0  0  0  0  0  0  0  0  0  0
  1  2  1  6
  2  3  1  0
  3  4  2  0
  4  5  1  0
  5  6  2  0
  6  7  1  0
  7  8  1  1
  7  9  1  0
  9 10  3  0
  6 11  1  0
 11 12  2  0
 13 12  1  6
 14 13  1  6
 13 15  2  0
 13 16  2  0
 12  3  1  0
M  END
$$$$
