_rank5
     RDKit          3D

 16 16  0  0  0  0  0  0  0  0999 V2000
   27.5852   -0.0462  -12.7914 C   0  0  0  0  0  0  0  0  0  0  0  0
   27.1246    0.3615  -11.5123 O   0  0  0  0  0  0  0  0  0  0  0  0
   25.8457   -0.0229  -11.1368 C   0  0  0  0  0  0  0  0  0  0  0  0
   24.8189   -0.1938  -12.0706 C   0  0  0  0  0  0  0  0  0  0  0  0
   23.5605   -0.5797  -11.6326 C   0  0  0  0  0  0  0  0  0  0  0  0
   23.3056   -0.7973  -10.2935 C   0  0  0  0  0  0  0  0  0  0  0  0
   21.9503   -1.2140   -9.8106 C   0  0  2  0  0  0  0  0  0  0  0  0
   21.2894   -1.8446  -10.9426 N   0  0  0  0  0  0  0  0  0  0  0  0
   21.1867   -0.0855   -9.3273 C   0  0  0  0  0  0  0  0  0  0  0  0
   20.5779    0.8132   -8.9247 N   0  0  0  0  0  0  0  0  0  0  0  0
   24.3372   -0.6214   -9.3928 C   0  0  0  0  0  0  0  0  0  0  0  0
   25.6153   -0.2340   -9.7969 C   0  0  0  0  0  0  0  0  0  0  0  0
   26.8974   -0.0159   -8.6730 S   0  0  2  0  0  6  0  0  0  0  0  0
   28.1931   -1.2128   -8.8375 C   0  0  0  0  0  0  0  0  0  0  0  0
   26.3413   -0.1560   -7.2765 O   0  0  0  0  0  0  0  0  0  0  0  0
   27.5303    1.3443   -8.7474 O   0  0  0  0  0  0  0  0  0  0  0  0
  1  2  1  6
  2  3  1  0
  3  4  2  0
  4  5  1  0
  5  6  2  0
  6  7  1  0
  7  8  1  6
  7  9  1  0
  9 10  3  0
  6 11  1  0
 11 12  2  0
 13 12  1  6
 14 13  1  6
 13 15  2  0
 13 16  2  0
 12  3  1  0
M  END
$$$$
