_rank1
     RDKit          3D

 16 16  0  0  0  0  0  0  0  0999 V2000
   27.1495    0.4347  -12.9852 C   0  0  0  0  0  0  0  0  0  0  0  0
   26.9468    0.1385  -11.6120 O   0  0  0  0  0  0  0  0  0  0  0  0
   25.6498   -0.1234  -11.1953 C   0  0  0  0  0  0  0  0  0  0  0  0
   24.5678   -0.1001  -12.0809 C   0  0  0  0  0  0  0  0  0  0  0  0
   23.2939   -0.3707  -11.6031 C   0  0  0  0  0  0  0  0  0  0  0  0
   23.0771   -0.6620  -10.2714 C   0  0  0  0  0  0  0  0  0  0  0  0
   21.7054   -0.9555   -9.7458 C   0  0  2  0  0  0  0  0  0  0  0  0
   21.2928   -2.2086  -10.3584 N   0  0  0  0  0  0  0  0  0  0  0  0
   20.7759    0.1062  -10.0604 C   0  0  0  0  0  0  0  0  0  0  0  0
   20.0444    0.9664  -10.3160 N   0  0  0  0  0  0  0  0  0  0  0  0
   24.1629   -0.6783   -9.4187 C   0  0  0  0  0  0  0  0  0  0  0  0
   25.4581   -0.4111   -9.8636 C   0  0  0  0  0  0  0  0  0  0  0  0
   26.8078   -0.4322   -8.7995 S   0  0  2  0  0  6  0  0  0  0  0  0
   27.5560    1.1578   -8.5748 C   0  0  0  0  0  0  0  0  0  0  0  0
   27.8648   -1.3393   -9.3821 O   0  0  0  0  0  0  0  0  0  0  0  0
   26.4837   -0.9729   -7.4362 O   0  0  0  0  0  0  0  0  0  0  0  0
  1  2  1  6
  2  3  1  0
  3  4  2  0
  4  5  1  0
  5  6  2  0
  6  7  1  0
  7  8  1  6
  7  9  1  0
  9 10  3  0
  6 11  1  0
 11 12  2  0
 13 12  1  6
 14 13  1  6
 13 15  2  0
 13 16  2  0
 12  3  1  0
M  END
$$$$
