_rank19
     RDKit          3D

 16 16  0  0  0  0  0  0  0  0999 V2000
   26.3366    0.6332   -7.4679 C   0  0  0  0  0  0  0  0  0  0  0  0
   25.7015    0.4430   -8.7229 O   0  0  0  0  0  0  0  0  0  0  0  0
   26.3113   -0.4124   -9.6289 C   0  0  0  0  0  0  0  0  0  0  0  0
   27.2436   -1.3745   -9.2281 C   0  0  0  0  0  0  0  0  0  0  0  0
   27.8189   -2.2009  -10.1823 C   0  0  0  0  0  0  0  0  0  0  0  0
   27.4873   -2.0895  -11.5176 C   0  0  0  0  0  0  0  0  0  0  0  0
   28.1032   -2.9769  -12.5554 C   0  0  2  0  0  0  0  0  0  0  0  0
   28.2380   -4.2892  -11.9428 N   0  0  0  0  0  0  0  0  0  0  0  0
   29.3863   -2.4744  -12.9926 C   0  0  0  0  0  0  0  0  0  0  0  0
   30.4108   -2.0577  -13.3348 N   0  0  0  0  0  0  0  0  0  0  0  0
   26.5641   -1.1312  -11.8861 C   0  0  0  0  0  0  0  0  0  0  0  0
   25.9652   -0.2828  -10.9542 C   0  0  0  0  0  0  0  0  0  0  0  0
   24.8161    0.9092  -11.4162 S   0  0  2  0  0  6  0  0  0  0  0  0
   25.3687    2.5692  -11.1379 C   0  0  0  0  0  0  0  0  0  0  0  0
   23.5658    0.7160  -10.5924 O   0  0  0  0  0  0  0  0  0  0  0  0
   24.3999    0.8097  -12.8559 O   0  0  0  0  0  0  0  0  0  0  0  0
  1  2  1  6
  2  3  1  0
  3  4  2  0
  4  5  1  0
  5  6  2  0
  6  7  1  0
  7  8  1  1
  7  9  1  0
  9 10  3  0
  6 11  1  0
 11 12  2  0
 13 12  1  1
 14 13  1  6
 13 15  2  0
 13 16  2  0
 12  3  1  0
M  END
$$$$
