_rank14
     RDKit          3D

 16 16  0  0  0  0  0  0  0  0999 V2000
   23.4945   -0.2073  -13.8986 C   0  0  0  0  0  0  0  0  0  0  0  0
   23.1219   -0.8028  -12.6652 O   0  0  0  0  0  0  0  0  0  0  0  0
   24.0173   -0.7095  -11.6097 C   0  0  0  0  0  0  0  0  0  0  0  0
   25.3932   -0.5680  -11.8152 C   0  0  0  0  0  0  0  0  0  0  0  0
   26.2377   -0.4798  -10.7182 C   0  0  0  0  0  0  0  0  0  0  0  0
   25.7435   -0.5293   -9.4302 C   0  0  0  0  0  0  0  0  0  0  0  0
   26.6471   -0.4351   -8.2392 C   0  0  2  0  0  0  0  0  0  0  0  0
   26.8076    0.9833   -7.9595 N   0  0  0  0  0  0  0  0  0  0  0  0
   27.9255   -1.0621   -8.4895 C   0  0  0  0  0  0  0  0  0  0  0  0
   28.9455   -1.5650   -8.7060 N   0  0  0  0  0  0  0  0  0  0  0  0
   24.3811   -0.6694   -9.2557 C   0  0  0  0  0  0  0  0  0  0  0  0
   23.5017   -0.7611  -10.3352 C   0  0  0  0  0  0  0  0  0  0  0  0
   21.8060   -0.9355  -10.1146 S   0  0  2  0  0  6  0  0  0  0  0  0
   21.0868   -2.1963  -11.1303 C   0  0  0  0  0  0  0  0  0  0  0  0
   21.1369    0.3659  -10.4859 O   0  0  0  0  0  0  0  0  0  0  0  0
   21.4165   -1.2270   -8.6935 O   0  0  0  0  0  0  0  0  0  0  0  0
  1  2  1  6
  2  3  1  0
  3  4  2  0
  4  5  1  0
  5  6  2  0
  6  7  1  0
  7  8  1  6
  7  9  1  0
  9 10  3  0
  6 11  1  0
 11 12  2  0
 13 12  1  1
 14 13  1  6
 13 15  2  0
 13 16  2  0
 12  3  1  0
M  END
$$$$
