_rank3
     RDKit          3D

 16 16  0  0  0  0  0  0  0  0999 V2000
   27.6980   -0.9610   -8.6622 C   0  0  0  0  0  0  0  0  0  0  0  0
   27.0501    0.0797   -9.3775 O   0  0  0  0  0  0  0  0  0  0  0  0
   25.7594   -0.1564   -9.8277 C   0  0  0  0  0  0  0  0  0  0  0  0
   24.7275   -0.5265   -8.9594 C   0  0  0  0  0  0  0  0  0  0  0  0
   23.4573   -0.7488   -9.4707 C   0  0  0  0  0  0  0  0  0  0  0  0
   23.1955   -0.6112  -10.8190 C   0  0  0  0  0  0  0  0  0  0  0  0
   21.8275   -0.8492  -11.3808 C   0  0  2  0  0  0  0  0  0  0  0  0
   20.9393    0.0807  -10.7007 N   0  0  0  0  0  0  0  0  0  0  0  0
   21.3996   -2.2155  -11.1805 C   0  0  0  0  0  0  0  0  0  0  0  0
   21.0727   -3.3140  -11.0170 N   0  0  0  0  0  0  0  0  0  0  0  0
   24.2323   -0.2449  -11.6540 C   0  0  0  0  0  0  0  0  0  0  0  0
   25.5223   -0.0131  -11.1754 C   0  0  0  0  0  0  0  0  0  0  0  0
   26.8109    0.4428  -12.2176 S   0  0  2  0  0  6  0  0  0  0  0  0
   26.4330    1.8392  -13.2401 C   0  0  0  0  0  0  0  0  0  0  0  0
   27.1132   -0.7123  -13.1415 O   0  0  0  0  0  0  0  0  0  0  0  0
   28.0867    0.7525  -11.4878 O   0  0  0  0  0  0  0  0  0  0  0  0
  1  2  1  6
  2  3  1  0
  3  4  2  0
  4  5  1  0
  5  6  2  0
  6  7  1  0
  7  8  1  1
  7  9  1  0
  9 10  3  0
  6 11  1  0
 11 12  2  0
 13 12  1  1
 14 13  1  6
 13 15  2  0
 13 16  2  0
 12  3  1  0
M  END
$$$$
