_rank6
     RDKit          3D

 16 16  0  0  0  0  0  0  0  0999 V2000
   27.7344    0.6754  -12.8092 C   0  0  0  0  0  0  0  0  0  0  0  0
   27.4272    0.2285  -11.4976 O   0  0  0  0  0  0  0  0  0  0  0  0
   26.1082   -0.1023  -11.2235 C   0  0  0  0  0  0  0  0  0  0  0  0
   25.1040   -0.0097  -12.1923 C   0  0  0  0  0  0  0  0  0  0  0  0
   23.8031   -0.3550  -11.8566 C   0  0  0  0  0  0  0  0  0  0  0  0
   23.4841   -0.7874  -10.5852 C   0  0  0  0  0  0  0  0  0  0  0  0
   22.0825   -1.1624  -10.2128 C   0  0  2  0  0  0  0  0  0  0  0  0
   21.3809   -1.4122  -11.4623 N   0  0  0  0  0  0  0  0  0  0  0  0
   21.4345   -0.1158   -9.4546 C   0  0  0  0  0  0  0  0  0  0  0  0
   20.9049    0.7111   -8.8415 N   0  0  0  0  0  0  0  0  0  0  0  0
   24.4946   -0.8696   -9.6478 C   0  0  0  0  0  0  0  0  0  0  0  0
   25.8140   -0.5307   -9.9496 C   0  0  0  0  0  0  0  0  0  0  0  0
   27.0698   -0.6341   -8.7804 S   0  0  2  0  0  6  0  0  0  0  0  0
   27.6642    0.9447   -8.2398 C   0  0  0  0  0  0  0  0  0  0  0  0
   28.2414   -1.3599   -9.3967 O   0  0  0  0  0  0  0  0  0  0  0  0
   26.6811   -1.4113   -7.5553 O   0  0  0  0  0  0  0  0  0  0  0  0
  1  2  1  6
  2  3  1  0
  3  4  2  0
  4  5  1  0
  5  6  2  0
  6  7  1  0
  7  8  1  6
  7  9  1  0
  9 10  3  0
  6 11  1  0
 11 12  2  0
 13 12  1  6
 14 13  1  6
 13 15  2  0
 13 16  2  0
 12  3  1  0
M  END
$$$$
