_rank8
     RDKit          3D

 16 16  0  0  0  0  0  0  0  0999 V2000
   26.9702    1.9804  -12.1666 C   0  0  0  0  0  0  0  0  0  0  0  0
   27.0286    0.6995  -11.5580 O   0  0  0  0  0  0  0  0  0  0  0  0
   25.8282    0.0986  -11.2082 C   0  0  0  0  0  0  0  0  0  0  0  0
   24.7279    0.0831  -12.0711 C   0  0  0  0  0  0  0  0  0  0  0  0
   23.5544   -0.5341  -11.6634 C   0  0  0  0  0  0  0  0  0  0  0  0
   23.4549   -1.1318  -10.4231 C   0  0  0  0  0  0  0  0  0  0  0  0
   22.1922   -1.8007   -9.9737 C   0  0  2  0  0  0  0  0  0  0  0  0
   21.6784   -2.5211  -11.1282 N   0  0  0  0  0  0  0  0  0  0  0  0
   21.2252   -0.8419   -9.4883 C   0  0  0  0  0  0  0  0  0  0  0  0
   20.4404   -0.0785   -9.1118 N   0  0  0  0  0  0  0  0  0  0  0  0
   24.5562   -1.1021   -9.5909 C   0  0  0  0  0  0  0  0  0  0  0  0
   25.7526   -0.4907   -9.9672 C   0  0  0  0  0  0  0  0  0  0  0  0
   27.1220   -0.4554   -8.9288 S   0  0  2  0  0  6  0  0  0  0  0  0
   28.6098   -1.0284   -9.7010 C   0  0  0  0  0  0  0  0  0  0  0  0
   26.8565   -1.3639   -7.7526 O   0  0  0  0  0  0  0  0  0  0  0  0
   27.4056    0.9066   -8.3624 O   0  0  0  0  0  0  0  0  0  0  0  0
  1  2  1  6
  2  3  1  0
  3  4  2  0
  4  5  1  0
  5  6  2  0
  6  7  1  0
  7  8  1  6
  7  9  1  0
  9 10  3  0
  6 11  1  0
 11 12  2  0
 13 12  1  6
 14 13  1  6
 13 15  2  0
 13 16  2  0
 12  3  1  0
M  END
$$$$
