_rank2
     RDKit          3D

 19 20  0  0  0  0  0  0  0  0999 V2000
   25.9092   -0.6548  -13.2592 C   0  0  0  0  0  0  0  0  0  0  0  0
   26.2141    0.6766  -12.1538 S   0  0  1  0  0  6  0  0  0  0  0  0
   27.6675    1.1113  -12.2373 O   0  0  0  0  0  0  0  0  0  0  0  0
   25.3593    1.8668  -12.5251 O   0  0  0  0  0  0  0  0  0  0  0  0
   25.8564    0.2549  -10.4997 C   0  0  0  0  0  0  0  0  0  0  0  0
   26.7961    0.2146   -9.5072 C   0  0  0  0  0  0  0  0  0  0  0  0
   26.4853   -0.1247   -8.1960 C   0  0  0  0  0  0  0  0  0  0  0  0
   27.4813   -0.1582   -7.1866 N   0  0  0  0  0  0  0  0  0  0  0  0
   25.1630   -0.4263   -7.9270 C   0  0  0  0  0  0  0  0  0  0  0  0
   24.1747   -0.4013   -8.8897 C   0  0  0  0  0  0  0  0  0  0  0  0
   24.5528   -0.0552  -10.1750 C   0  0  0  0  0  0  0  0  0  0  0  0
   23.5784   -0.0229  -11.1602 O   0  0  0  0  0  0  0  0  0  0  0  0
   22.2731   -0.4022  -10.9062 C   0  0  0  0  0  0  0  0  0  0  0  0
   21.8950   -1.7171  -10.9011 C   0  0  0  0  0  0  0  0  0  0  0  0
   20.6033   -2.0595  -10.6478 C   0  0  0  0  0  0  0  0  0  0  0  0
   19.6709   -1.0791  -10.3953 C   0  0  0  0  0  0  0  0  0  0  0  0
   20.0340    0.2374  -10.3972 C   0  0  0  0  0  0  0  0  0  0  0  0
   19.0919    1.1725  -10.1451 F   0  0  0  0  0  0  0  0  0  0  0  0
   21.3316    0.5898  -10.6511 C   0  0  0  0  0  0  0  0  0  0  0  0
  1  2  1  1
  2  3  2  0
  2  4  2  0
  2  5  1  1
  5  6  2  0
  6  7  1  0
  7  8  1  0
  7  9  2  0
  9 10  1  0
 10 11  2  0
 11 12  1  0
 12 13  1  0
 13 14  2  0
 14 15  1  0
 15 16  2  0
 16 17  1  0
 17 18  1  0
 17 19  2  0
 11  5  1  0
 19 13  1  0
M  END
$$$$
