_rank16
     RDKit          3D

 19 20  0  0  0  0  0  0  0  0999 V2000
   26.0422    1.1979  -11.6050 C   0  0  0  0  0  0  0  0  0  0  0  0
   24.4039    0.9283  -12.1801 S   0  0  1  0  0  6  0  0  0  0  0  0
   23.5844    2.2019  -12.0590 O   0  0  0  0  0  0  0  0  0  0  0  0
   24.4233    0.5347  -13.6395 O   0  0  0  0  0  0  0  0  0  0  0  0
   23.5945   -0.3375  -11.2943 C   0  0  0  0  0  0  0  0  0  0  0  0
   22.2359   -0.4238  -11.1662 C   0  0  0  0  0  0  0  0  0  0  0  0
   21.6147   -1.4429  -10.4545 C   0  0  0  0  0  0  0  0  0  0  0  0
   20.2025   -1.5072  -10.3383 N   0  0  0  0  0  0  0  0  0  0  0  0
   22.4391   -2.3859   -9.8687 C   0  0  0  0  0  0  0  0  0  0  0  0
   23.8149   -2.3469   -9.9661 C   0  0  0  0  0  0  0  0  0  0  0  0
   24.3683   -1.3051  -10.6894 C   0  0  0  0  0  0  0  0  0  0  0  0
   25.7484   -1.2435  -10.8021 O   0  0  0  0  0  0  0  0  0  0  0  0
   26.5502   -0.8760   -9.7371 C   0  0  0  0  0  0  0  0  0  0  0  0
   26.4880    0.3763   -9.1894 C   0  0  0  0  0  0  0  0  0  0  0  0
   27.2896    0.7087   -8.1421 C   0  0  0  0  0  0  0  0  0  0  0  0
   28.1682   -0.2187   -7.6297 C   0  0  0  0  0  0  0  0  0  0  0  0
   28.2410   -1.4724   -8.1663 C   0  0  0  0  0  0  0  0  0  0  0  0
   29.1151   -2.3566   -7.6375 F   0  0  0  0  0  0  0  0  0  0  0  0
   27.4378   -1.8143   -9.2201 C   0  0  0  0  0  0  0  0  0  0  0  0
  1  2  1  1
  2  3  2  0
  2  4  2  0
  2  5  1  1
  5  6  2  0
  6  7  1  0
  7  8  1  0
  7  9  2  0
  9 10  1  0
 10 11  2  0
 11 12  1  0
 12 13  1  0
 13 14  2  0
 14 15  1  0
 15 16  2  0
 16 17  1  0
 17 18  1  0
 17 19  2  0
 11  5  1  0
 19 13  1  0
M  END
$$$$
