_rank17
     RDKit          3D

 19 20  0  0  0  0  0  0  0  0999 V2000
   23.7643    0.5517  -14.4015 C   0  0  0  0  0  0  0  0  0  0  0  0
   24.7653    0.6002  -12.9583 S   0  0  1  0  0  6  0  0  0  0  0  0
   25.9690   -0.3128  -13.1185 O   0  0  0  0  0  0  0  0  0  0  0  0
   25.2826    2.0023  -12.7312 O   0  0  0  0  0  0  0  0  0  0  0  0
   23.8880    0.1149  -11.5312 C   0  0  0  0  0  0  0  0  0  0  0  0
   22.5434   -0.1328  -11.5153 C   0  0  0  0  0  0  0  0  0  0  0  0
   21.8672   -0.5186  -10.3642 C   0  0  0  0  0  0  0  0  0  0  0  0
   20.4711   -0.7690  -10.3774 N   0  0  0  0  0  0  0  0  0  0  0  0
   22.6207   -0.6451   -9.2117 C   0  0  0  0  0  0  0  0  0  0  0  0
   23.9793   -0.4077   -9.1713 C   0  0  0  0  0  0  0  0  0  0  0  0
   24.5901   -0.0268  -10.3531 C   0  0  0  0  0  0  0  0  0  0  0  0
   25.9544    0.2175  -10.3387 O   0  0  0  0  0  0  0  0  0  0  0  0
   26.7839   -0.3403   -9.3832 C   0  0  0  0  0  0  0  0  0  0  0  0
   26.8383   -1.6922   -9.1796 C   0  0  0  0  0  0  0  0  0  0  0  0
   27.6643   -2.2115   -8.2321 C   0  0  0  0  0  0  0  0  0  0  0  0
   28.4500   -1.3738   -7.4735 C   0  0  0  0  0  0  0  0  0  0  0  0
   28.4062   -0.0225   -7.6658 C   0  0  0  0  0  0  0  0  0  0  0  0
   29.1914    0.7690   -6.9028 F   0  0  0  0  0  0  0  0  0  0  0  0
   27.5776    0.5076   -8.6171 C   0  0  0  0  0  0  0  0  0  0  0  0
  1  2  1  1
  2  3  2  0
  2  4  2  0
  2  5  1  1
  5  6  2  0
  6  7  1  0
  7  8  1  0
  7  9  2  0
  9 10  1  0
 10 11  2  0
 11 12  1  0
 12 13  1  0
 13 14  2  0
 14 15  1  0
 15 16  2  0
 16 17  1  0
 17 18  1  0
 17 19  2  0
 11  5  1  0
 19 13  1  0
M  END
$$$$
