_rank4
     RDKit          3D

 19 20  0  0  0  0  0  0  0  0999 V2000
   27.4509    1.2127  -12.6923 C   0  0  0  0  0  0  0  0  0  0  0  0
   25.8869    0.4395  -12.4839 S   0  0  1  0  0  6  0  0  0  0  0  0
   24.7729    1.3689  -12.9348 O   0  0  0  0  0  0  0  0  0  0  0  0
   25.8085   -0.8113  -13.3292 O   0  0  0  0  0  0  0  0  0  0  0  0
   25.5921   -0.0148  -10.8259 C   0  0  0  0  0  0  0  0  0  0  0  0
   26.5580   -0.0206   -9.8581 C   0  0  0  0  0  0  0  0  0  0  0  0
   26.2974   -0.3870   -8.5432 C   0  0  0  0  0  0  0  0  0  0  0  0
   27.3196   -0.3835   -7.5599 N   0  0  0  0  0  0  0  0  0  0  0  0
   24.9979   -0.7530   -8.2442 C   0  0  0  0  0  0  0  0  0  0  0  0
   23.9851   -0.7651   -9.1812 C   0  0  0  0  0  0  0  0  0  0  0  0
   24.3132   -0.3890  -10.4718 C   0  0  0  0  0  0  0  0  0  0  0  0
   23.3134   -0.3928  -11.4317 O   0  0  0  0  0  0  0  0  0  0  0  0
   21.9758   -0.3119  -11.0901 C   0  0  0  0  0  0  0  0  0  0  0  0
   21.4055    0.8669  -10.6935 C   0  0  0  0  0  0  0  0  0  0  0  0
   20.0869    0.9154  -10.3637 C   0  0  0  0  0  0  0  0  0  0  0  0
   19.3213   -0.2266  -10.4289 C   0  0  0  0  0  0  0  0  0  0  0  0
   19.8771   -1.4101  -10.8230 C   0  0  0  0  0  0  0  0  0  0  0  0
   19.0952   -2.5107  -10.8752 F   0  0  0  0  0  0  0  0  0  0  0  0
   21.2031   -1.4669  -11.1565 C   0  0  0  0  0  0  0  0  0  0  0  0
  1  2  1  1
  2  3  2  0
  2  4  2  0
  2  5  1  1
  5  6  2  0
  6  7  1  0
  7  8  1  0
  7  9  2  0
  9 10  1  0
 10 11  2  0
 11 12  1  0
 12 13  1  0
 13 14  2  0
 14 15  1  0
 15 16  2  0
 16 17  1  0
 17 18  1  0
 17 19  2  0
 11  5  1  0
 19 13  1  0
M  END
$$$$
