_rank15
     RDKit          3D

 19 20  0  0  0  0  0  0  0  0999 V2000
   25.9988    2.5404  -12.4377 C   0  0  0  0  0  0  0  0  0  0  0  0
   26.6320    0.9016  -12.4160 S   0  0  1  0  0  6  0  0  0  0  0  0
   25.8607    0.0235  -13.3868 O   0  0  0  0  0  0  0  0  0  0  0  0
   28.0804    0.8979  -12.8488 O   0  0  0  0  0  0  0  0  0  0  0  0
   26.5448    0.1823  -10.8295 C   0  0  0  0  0  0  0  0  0  0  0  0
   27.4520    0.4256   -9.8358 C   0  0  0  0  0  0  0  0  0  0  0  0
   27.3603   -0.1604   -8.5791 C   0  0  0  0  0  0  0  0  0  0  0  0
   28.3164    0.1106   -7.5670 N   0  0  0  0  0  0  0  0  0  0  0  0
   26.2954   -1.0165   -8.3669 C   0  0  0  0  0  0  0  0  0  0  0  0
   25.3517   -1.2974   -9.3337 C   0  0  0  0  0  0  0  0  0  0  0  0
   25.5026   -0.6800  -10.5628 C   0  0  0  0  0  0  0  0  0  0  0  0
   24.5676   -0.9458  -11.5508 O   0  0  0  0  0  0  0  0  0  0  0  0
   23.2103   -0.9520  -11.2862 C   0  0  0  0  0  0  0  0  0  0  0  0
   22.2823   -0.9689  -12.2914 C   0  0  0  0  0  0  0  0  0  0  0  0
   20.9537   -0.9747  -11.9999 C   0  0  0  0  0  0  0  0  0  0  0  0
   20.5397   -0.9635  -10.6873 C   0  0  0  0  0  0  0  0  0  0  0  0
   21.4547   -0.9467   -9.6737 C   0  0  0  0  0  0  0  0  0  0  0  0
   21.0118   -0.9361   -8.3974 F   0  0  0  0  0  0  0  0  0  0  0  0
   22.7931   -0.9408   -9.9590 C   0  0  0  0  0  0  0  0  0  0  0  0
  1  2  1  1
  2  3  2  0
  2  4  2  0
  2  5  1  1
  5  6  2  0
  6  7  1  0
  7  8  1  0
  7  9  2  0
  9 10  1  0
 10 11  2  0
 11 12  1  0
 12 13  1  0
 13 14  2  0
 14 15  1  0
 15 16  2  0
 16 17  1  0
 17 18  1  0
 17 19  2  0
 11  5  1  0
 19 13  1  0
M  END
$$$$
