_rank6
     RDKit          3D

 19 20  0  0  0  0  0  0  0  0999 V2000
   25.8753    1.8499  -12.9173 C   0  0  0  0  0  0  0  0  0  0  0  0
   26.4840    0.3349  -12.2683 S   0  0  1  0  0  6  0  0  0  0  0  0
   25.8468   -0.8425  -12.9866 O   0  0  0  0  0  0  0  0  0  0  0  0
   27.9784    0.2428  -12.4771 O   0  0  0  0  0  0  0  0  0  0  0  0
   26.1709    0.1767  -10.5598 C   0  0  0  0  0  0  0  0  0  0  0  0
   27.1537    0.1182   -9.6110 C   0  0  0  0  0  0  0  0  0  0  0  0
   26.8780   -0.0081   -8.2549 C   0  0  0  0  0  0  0  0  0  0  0  0
   27.9184   -0.0663   -7.2926 N   0  0  0  0  0  0  0  0  0  0  0  0
   25.5449   -0.0737   -7.8935 C   0  0  0  0  0  0  0  0  0  0  0  0
   24.5137   -0.0194   -8.8088 C   0  0  0  0  0  0  0  0  0  0  0  0
   24.8585    0.1067  -10.1430 C   0  0  0  0  0  0  0  0  0  0  0  0
   23.8408    0.1635  -11.0821 O   0  0  0  0  0  0  0  0  0  0  0  0
   22.6000   -0.3996  -10.8462 C   0  0  0  0  0  0  0  0  0  0  0  0
   22.4210   -1.7556  -10.8124 C   0  0  0  0  0  0  0  0  0  0  0  0
   21.1882   -2.2802  -10.5779 C   0  0  0  0  0  0  0  0  0  0  0  0
   20.1145   -1.4436  -10.3736 C   0  0  0  0  0  0  0  0  0  0  0  0
   20.2784   -0.0882  -10.4045 C   0  0  0  0  0  0  0  0  0  0  0  0
   19.2019    0.7022  -10.1996 F   0  0  0  0  0  0  0  0  0  0  0  0
   21.5156    0.4471  -10.6398 C   0  0  0  0  0  0  0  0  0  0  0  0
  1  2  1  1
  2  3  2  0
  2  4  2  0
  2  5  1  1
  5  6  2  0
  6  7  1  0
  7  8  1  0
  7  9  2  0
  9 10  1  0
 10 11  2  0
 11 12  1  0
 12 13  1  0
 13 14  2  0
 14 15  1  0
 15 16  2  0
 16 17  1  0
 17 18  1  0
 17 19  2  0
 11  5  1  0
 19 13  1  0
M  END
$$$$
