_rank3
     RDKit          3D

 19 20  0  0  0  0  0  0  0  0999 V2000
   26.2913   -0.5764  -13.3195 C   0  0  0  0  0  0  0  0  0  0  0  0
   26.4964    0.8084  -12.2577 S   0  0  1  0  0  6  0  0  0  0  0  0
   27.9110    1.3524  -12.3649 O   0  0  0  0  0  0  0  0  0  0  0  0
   25.5495    1.9163  -12.6592 O   0  0  0  0  0  0  0  0  0  0  0  0
   26.1805    0.4119  -10.5889 C   0  0  0  0  0  0  0  0  0  0  0  0
   27.1395    0.4149   -9.6142 C   0  0  0  0  0  0  0  0  0  0  0  0
   26.8621    0.0949   -8.2907 C   0  0  0  0  0  0  0  0  0  0  0  0
   27.8775    0.1064   -7.3003 N   0  0  0  0  0  0  0  0  0  0  0  0
   25.5530   -0.2334   -7.9902 C   0  0  0  0  0  0  0  0  0  0  0  0
   24.5464   -0.2523   -8.9339 C   0  0  0  0  0  0  0  0  0  0  0  0
   24.8914    0.0767  -10.2329 C   0  0  0  0  0  0  0  0  0  0  0  0
   23.8982    0.0651  -11.1996 O   0  0  0  0  0  0  0  0  0  0  0  0
   22.6077   -0.3406  -10.9127 C   0  0  0  0  0  0  0  0  0  0  0  0
   22.3055   -1.6511  -10.6613 C   0  0  0  0  0  0  0  0  0  0  0  0
   21.0265   -2.0199  -10.3821 C   0  0  0  0  0  0  0  0  0  0  0  0
   20.0302   -1.0707  -10.3520 C   0  0  0  0  0  0  0  0  0  0  0  0
   20.3171    0.2410  -10.6010 C   0  0  0  0  0  0  0  0  0  0  0  0
   19.3138    1.1450  -10.5628 F   0  0  0  0  0  0  0  0  0  0  0  0
   21.6015    0.6198  -10.8827 C   0  0  0  0  0  0  0  0  0  0  0  0
  1  2  1  1
  2  3  2  0
  2  4  2  0
  2  5  1  1
  5  6  2  0
  6  7  1  0
  7  8  1  0
  7  9  2  0
  9 10  1  0
 10 11  2  0
 11 12  1  0
 12 13  1  0
 13 14  2  0
 14 15  1  0
 15 16  2  0
 16 17  1  0
 17 18  1  0
 17 19  2  0
 11  5  1  0
 19 13  1  0
M  END
$$$$
