_rank1
     RDKit          3D

 19 20  0  0  0  0  0  0  0  0999 V2000
   27.7828    0.6470  -12.8819 C   0  0  0  0  0  0  0  0  0  0  0  0
   26.0644    0.6196  -12.5161 S   0  0  1  0  0  6  0  0  0  0  0  0
   25.4535    1.9922  -12.7419 O   0  0  0  0  0  0  0  0  0  0  0  0
   25.3537   -0.3525  -13.4297 O   0  0  0  0  0  0  0  0  0  0  0  0
   25.7487    0.1369  -10.8700 C   0  0  0  0  0  0  0  0  0  0  0  0
   26.7227   -0.0023   -9.9206 C   0  0  0  0  0  0  0  0  0  0  0  0
   26.4451   -0.3885   -8.6149 C   0  0  0  0  0  0  0  0  0  0  0  0
   27.4763   -0.5248   -7.6506 N   0  0  0  0  0  0  0  0  0  0  0  0
   25.1195   -0.6317   -8.3055 C   0  0  0  0  0  0  0  0  0  0  0  0
   24.0974   -0.5067   -9.2240 C   0  0  0  0  0  0  0  0  0  0  0  0
   24.4436   -0.1185  -10.5063 C   0  0  0  0  0  0  0  0  0  0  0  0
   23.4348    0.0142  -11.4475 O   0  0  0  0  0  0  0  0  0  0  0  0
   22.1094   -0.2230  -11.1327 C   0  0  0  0  0  0  0  0  0  0  0  0
   21.5164   -1.4304  -11.3827 C   0  0  0  0  0  0  0  0  0  0  0  0
   20.2104   -1.6340  -11.0618 C   0  0  0  0  0  0  0  0  0  0  0  0
   19.4807   -0.6208  -10.4826 C   0  0  0  0  0  0  0  0  0  0  0  0
   20.0594    0.5895  -10.2273 C   0  0  0  0  0  0  0  0  0  0  0  0
   19.3125    1.5606   -9.6577 F   0  0  0  0  0  0  0  0  0  0  0  0
   21.3728    0.8019  -10.5472 C   0  0  0  0  0  0  0  0  0  0  0  0
  1  2  1  1
  2  3  2  0
  2  4  2  0
  2  5  1  1
  5  6  2  0
  6  7  1  0
  7  8  1  0
  7  9  2  0
  9 10  1  0
 10 11  2  0
 11 12  1  0
 12 13  1  0
 13 14  2  0
 14 15  1  0
 15 16  2  0
 16 17  1  0
 17 18  1  0
 17 19  2  0
 11  5  1  0
 19 13  1  0
M  END
$$$$
