_rank7
     RDKit          3D

 19 20  0  0  0  0  0  0  0  0999 V2000
   25.3779    1.8657  -12.9589 C   0  0  0  0  0  0  0  0  0  0  0  0
   26.1805    0.4387  -12.3212 S   0  0  1  0  0  6  0  0  0  0  0  0
   25.7375   -0.8009  -13.0798 O   0  0  0  0  0  0  0  0  0  0  0  0
   27.6775    0.5657  -12.4884 O   0  0  0  0  0  0  0  0  0  0  0  0
   25.8490    0.1984  -10.6258 C   0  0  0  0  0  0  0  0  0  0  0  0
   26.7525    0.4566   -9.6325 C   0  0  0  0  0  0  0  0  0  0  0  0
   26.4638    0.2567   -8.2880 C   0  0  0  0  0  0  0  0  0  0  0  0
   27.4212    0.5334   -7.2787 N   0  0  0  0  0  0  0  0  0  0  0  0
   25.2027   -0.2231   -7.9861 C   0  0  0  0  0  0  0  0  0  0  0  0
   24.2530   -0.5003   -8.9480 C   0  0  0  0  0  0  0  0  0  0  0  0
   24.6061   -0.2787  -10.2674 C   0  0  0  0  0  0  0  0  0  0  0  0
   23.6696   -0.5496  -11.2527 O   0  0  0  0  0  0  0  0  0  0  0  0
   22.3185   -0.6329  -10.9699 C   0  0  0  0  0  0  0  0  0  0  0  0
   21.6624   -1.8332  -10.9446 C   0  0  0  0  0  0  0  0  0  0  0  0
   20.3326   -1.8835  -10.6632 C   0  0  0  0  0  0  0  0  0  0  0  0
   19.6425   -0.7215  -10.4023 C   0  0  0  0  0  0  0  0  0  0  0  0
   20.2844    0.4836  -10.4240 C   0  0  0  0  0  0  0  0  0  0  0  0
   19.5750    1.6034  -10.1631 F   0  0  0  0  0  0  0  0  0  0  0  0
   21.6221    0.5423  -10.7064 C   0  0  0  0  0  0  0  0  0  0  0  0
  1  2  1  1
  2  3  2  0
  2  4  2  0
  2  5  1  1
  5  6  2  0
  6  7  1  0
  7  8  1  0
  7  9  2  0
  9 10  1  0
 10 11  2  0
 11 12  1  0
 12 13  1  0
 13 14  2  0
 14 15  1  0
 15 16  2  0
 16 17  1  0
 17 18  1  0
 17 19  2  0
 11  5  1  0
 19 13  1  0
M  END
$$$$
