_rank20
     RDKit          3D

 19 20  0  0  0  0  0  0  0  0999 V2000
   25.9616   -1.0808   -8.2624 C   0  0  0  0  0  0  0  0  0  0  0  0
   25.6736    0.1804   -9.4514 S   0  0  1  0  0  6  0  0  0  0  0  0
   24.6773    1.1948   -8.9160 O   0  0  0  0  0  0  0  0  0  0  0  0
   26.9594    0.9170   -9.7500 O   0  0  0  0  0  0  0  0  0  0  0  0
   25.0604   -0.4582  -10.9542 C   0  0  0  0  0  0  0  0  0  0  0  0
   25.7448   -0.4039  -12.1366 C   0  0  0  0  0  0  0  0  0  0  0  0
   25.2340   -0.9204  -13.3212 C   0  0  0  0  0  0  0  0  0  0  0  0
   25.9669   -0.8499  -14.5335 N   0  0  0  0  0  0  0  0  0  0  0  0
   23.9817   -1.5032  -13.2580 C   0  0  0  0  0  0  0  0  0  0  0  0
   23.2478   -1.5849  -12.0923 C   0  0  0  0  0  0  0  0  0  0  0  0
   23.8155   -1.0508  -10.9490 C   0  0  0  0  0  0  0  0  0  0  0  0
   23.0982   -1.1204   -9.7651 O   0  0  0  0  0  0  0  0  0  0  0  0
   21.7937   -0.6704   -9.6766 C   0  0  0  0  0  0  0  0  0  0  0  0
   20.7784   -1.4876   -9.2601 C   0  0  0  0  0  0  0  0  0  0  0  0
   19.5048   -1.0163   -9.1832 C   0  0  0  0  0  0  0  0  0  0  0  0
   19.2348    0.2891   -9.5259 C   0  0  0  0  0  0  0  0  0  0  0  0
   20.2382    1.1161   -9.9433 C   0  0  0  0  0  0  0  0  0  0  0  0
   19.9361    2.3914  -10.2715 F   0  0  0  0  0  0  0  0  0  0  0  0
   21.5221    0.6493  -10.0232 C   0  0  0  0  0  0  0  0  0  0  0  0
  1  2  1  1
  2  3  2  0
  2  4  2  0
  2  5  1  6
  5  6  2  0
  6  7  1  0
  7  8  1  0
  7  9  2  0
  9 10  1  0
 10 11  2  0
 11 12  1  0
 12 13  1  0
 13 14  2  0
 14 15  1  0
 15 16  2  0
 16 17  1  0
 17 18  1  0
 17 19  2  0
 11  5  1  0
 19 13  1  0
M  END
$$$$
