_rank18
     RDKit          3D

 19 20  0  0  0  0  0  0  0  0999 V2000
   26.1541    0.3780  -12.3243 C   0  0  0  0  0  0  0  0  0  0  0  0
   26.5502   -0.7395  -11.0276 S   0  0  1  0  0  6  0  0  0  0  0  0
   26.3121   -2.1724  -11.4729 O   0  0  0  0  0  0  0  0  0  0  0  0
   28.0108   -0.6124  -10.6595 O   0  0  0  0  0  0  0  0  0  0  0  0
   25.6074   -0.4424   -9.5906 C   0  0  0  0  0  0  0  0  0  0  0  0
   26.1541   -0.1435   -8.3734 C   0  0  0  0  0  0  0  0  0  0  0  0
   25.3807    0.0892   -7.2427 C   0  0  0  0  0  0  0  0  0  0  0  0
   25.9755    0.3974   -5.9924 N   0  0  0  0  0  0  0  0  0  0  0  0
   24.0092    0.0055   -7.3977 C   0  0  0  0  0  0  0  0  0  0  0  0
   23.4050   -0.2924   -8.6020 C   0  0  0  0  0  0  0  0  0  0  0  0
   24.2339   -0.5129   -9.6878 C   0  0  0  0  0  0  0  0  0  0  0  0
   23.6513   -0.8139  -10.9089 O   0  0  0  0  0  0  0  0  0  0  0  0
   22.2964   -1.0640  -11.0272 C   0  0  0  0  0  0  0  0  0  0  0  0
   21.3951   -0.0559  -11.2355 C   0  0  0  0  0  0  0  0  0  0  0  0
   20.0682   -0.3331  -11.3478 C   0  0  0  0  0  0  0  0  0  0  0  0
   19.6289   -1.6339  -11.2517 C   0  0  0  0  0  0  0  0  0  0  0  0
   20.5171   -2.6502  -11.0440 C   0  0  0  0  0  0  0  0  0  0  0  0
   20.0498   -3.9147  -10.9549 F   0  0  0  0  0  0  0  0  0  0  0  0
   21.8536   -2.3793  -10.9299 C   0  0  0  0  0  0  0  0  0  0  0  0
  1  2  1  1
  2  3  2  0
  2  4  2  0
  2  5  1  1
  5  6  2  0
  6  7  1  0
  7  8  1  0
  7  9  2  0
  9 10  1  0
 10 11  2  0
 11 12  1  0
 12 13  1  0
 13 14  2  0
 14 15  1  0
 15 16  2  0
 16 17  1  0
 17 18  1  0
 17 19  2  0
 11  5  1  0
 19 13  1  0
M  END
$$$$
