_rank14
     RDKit          3D

 19 20  0  0  0  0  0  0  0  0999 V2000
   24.9785    1.1444  -12.8213 C   0  0  0  0  0  0  0  0  0  0  0  0
   26.3088    0.2302  -12.1270 S   0  0  1  0  0  6  0  0  0  0  0  0
   26.3553   -1.1683  -12.7187 O   0  0  0  0  0  0  0  0  0  0  0  0
   27.6242    0.9043  -12.4441 O   0  0  0  0  0  0  0  0  0  0  0  0
   26.1806    0.0940  -10.3930 C   0  0  0  0  0  0  0  0  0  0  0  0
   27.1315    0.5527   -9.5240 C   0  0  0  0  0  0  0  0  0  0  0  0
   27.0057    0.4320   -8.1454 C   0  0  0  0  0  0  0  0  0  0  0  0
   28.0087    0.9173   -7.2676 N   0  0  0  0  0  0  0  0  0  0  0  0
   25.8593   -0.1821   -7.6756 C   0  0  0  0  0  0  0  0  0  0  0  0
   24.8687   -0.6629   -8.5071 C   0  0  0  0  0  0  0  0  0  0  0  0
   25.0573   -0.5102   -9.8694 C   0  0  0  0  0  0  0  0  0  0  0  0
   24.0764   -0.9849  -10.7259 O   0  0  0  0  0  0  0  0  0  0  0  0
   22.7501   -0.6189  -10.5881 C   0  0  0  0  0  0  0  0  0  0  0  0
   22.2938    0.0210   -9.4681 C   0  0  0  0  0  0  0  0  0  0  0  0
   20.9832    0.3686   -9.3614 C   0  0  0  0  0  0  0  0  0  0  0  0
   20.1105    0.0756  -10.3846 C   0  0  0  0  0  0  0  0  0  0  0  0
   20.5518   -0.5627  -11.5083 C   0  0  0  0  0  0  0  0  0  0  0  0
   19.6668   -0.8341  -12.4924 F   0  0  0  0  0  0  0  0  0  0  0  0
   21.8690   -0.9157  -11.6231 C   0  0  0  0  0  0  0  0  0  0  0  0
  1  2  1  1
  2  3  2  0
  2  4  2  0
  2  5  1  1
  5  6  2  0
  6  7  1  0
  7  8  1  0
  7  9  2  0
  9 10  1  0
 10 11  2  0
 11 12  1  0
 12 13  1  0
 13 14  2  0
 14 15  1  0
 15 16  2  0
 16 17  1  0
 17 18  1  0
 17 19  2  0
 11  5  1  0
 19 13  1  0
M  END
$$$$
