_rank10
     RDKit          3D

 18 19  0  0  0  0  0  0  0  0999 V2000
   19.9255    1.6833   -9.8966 C   0  0  0  0  0  0  0  0  0  0  0  0
   20.5534    0.4075  -10.4017 C   0  0  1  0  0  0  0  0  0  0  0  0
   21.7823    0.0255   -9.6302 C   0  0  0  0  0  0  0  0  0  0  0  0
   22.5816   -0.9460  -10.5568 C   0  0  2  0  0  0  0  0  0  0  0  0
   23.3736   -0.1218  -11.3843 O   0  0  0  0  0  0  0  0  0  0  0  0
   24.7281   -0.0447  -11.2318 C   0  0  0  0  0  0  0  0  0  0  0  0
   25.5582    0.3854  -12.2113 C   0  0  0  0  0  0  0  0  0  0  0  0
   26.9358    0.4358  -12.0158 C   0  0  0  0  0  0  0  0  0  0  0  0
   27.7381    0.8678  -13.0043 F   0  0  0  0  0  0  0  0  0  0  0  0
   27.4688    0.0510  -10.8194 C   0  0  0  0  0  0  0  0  0  0  0  0
   26.6315   -0.3935   -9.7995 C   0  0  0  0  0  0  0  0  0  0  0  0
   27.2105   -0.7940   -8.5407 C   0  0  0  0  0  0  0  0  0  0  0  0
   27.6784   -1.1339   -7.5127 N   0  0  0  0  0  0  0  0  0  0  0  0
   25.3050   -0.4345  -10.0072 C   0  0  0  0  0  0  0  0  0  0  0  0
   21.6005   -1.6606  -11.4137 C   0  0  0  0  0  0  0  0  0  0  0  0
   20.2497   -1.8287  -10.7631 C   0  0  1  0  0  0  0  0  0  0  0  0
   20.3378   -2.7771   -9.6195 C   0  0  0  0  0  0  0  0  0  0  0  0
   19.6575   -0.6315  -10.3683 O   0  0  0  0  0  0  0  0  0  0  0  0
  1  2  1  6
  3  2  1  6
  3  4  1  0
  4  5  1  6
  5  6  1  0
  6  7  2  0
  7  8  1  0
  8  9  1  0
  8 10  2  0
 10 11  1  0
 11 12  1  0
 12 13  3  0
 11 14  2  0
 15  4  1  1
 15 16  1  0
 17 16  1  6
 16 18  1  1
  2 18  1  1
 14  6  1  0
M  END
$$$$
