_rank6
     RDKit          3D

 18 19  0  0  0  0  0  0  0  0999 V2000
   19.9009   -2.9373  -11.2486 C   0  0  0  0  0  0  0  0  0  0  0  0
   20.4965   -1.7375  -10.5537 C   0  0  1  0  0  0  0  0  0  0  0  0
   21.4204   -0.9573  -11.4419 C   0  0  0  0  0  0  0  0  0  0  0  0
   22.3278   -0.1217  -10.4828 C   0  0  2  0  0  0  0  0  0  0  0  0
   23.4005   -0.9697  -10.1344 O   0  0  0  0  0  0  0  0  0  0  0  0
   24.6999   -0.5839  -10.2973 C   0  0  0  0  0  0  0  0  0  0  0  0
   25.2153   -0.2112  -11.4927 C   0  0  0  0  0  0  0  0  0  0  0  0
   26.5508    0.1631  -11.6149 C   0  0  0  0  0  0  0  0  0  0  0  0
   27.0376    0.5299  -12.8131 F   0  0  0  0  0  0  0  0  0  0  0  0
   27.3622    0.1614  -10.5169 C   0  0  0  0  0  0  0  0  0  0  0  0
   26.8505   -0.2178   -9.2787 C   0  0  0  0  0  0  0  0  0  0  0  0
   27.7203   -0.2115   -8.1282 C   0  0  0  0  0  0  0  0  0  0  0  0
   28.4326   -0.2201   -7.1881 N   0  0  0  0  0  0  0  0  0  0  0  0
   25.5592   -0.5751   -9.1810 C   0  0  0  0  0  0  0  0  0  0  0  0
   21.5423    0.1639   -9.2544 C   0  0  0  0  0  0  0  0  0  0  0  0
   20.0558    0.2423   -9.5004 C   0  0  1  0  0  0  0  0  0  0  0  0
   19.7253    1.4476  -10.3085 C   0  0  0  0  0  0  0  0  0  0  0  0
   19.5155   -0.9040  -10.0782 O   0  0  0  0  0  0  0  0  0  0  0  0
  1  2  1  6
  3  2  1  6
  3  4  1  0
  4  5  1  1
  5  6  1  0
  6  7  2  0
  7  8  1  0
  8  9  1  0
  8 10  2  0
 10 11  1  0
 11 12  1  0
 12 13  3  0
 11 14  2  0
 15  4  1  1
 15 16  1  0
 17 16  1  6
 16 18  1  6
  2 18  1  6
 14  6  1  0
M  END
$$$$
