_rank11
     RDKit          3D

 18 19  0  0  0  0  0  0  0  0999 V2000
   20.6885   -3.4445  -10.6122 C   0  0  0  0  0  0  0  0  0  0  0  0
   20.8926   -1.9837  -10.2940 C   0  0  1  0  0  0  0  0  0  0  0  0
   21.9830   -1.3620  -11.1161 C   0  0  0  0  0  0  0  0  0  0  0  0
   22.4243   -0.0806  -10.3384 C   0  0  2  0  0  0  0  0  0  0  0  0
   23.3917   -0.5122   -9.4060 O   0  0  0  0  0  0  0  0  0  0  0  0
   24.7233   -0.5178   -9.7069 C   0  0  0  0  0  0  0  0  0  0  0  0
   25.1969   -0.7294  -10.9577 C   0  0  0  0  0  0  0  0  0  0  0  0
   26.5649   -0.7389  -11.2167 C   0  0  0  0  0  0  0  0  0  0  0  0
   27.0092   -0.9504  -12.4678 F   0  0  0  0  0  0  0  0  0  0  0  0
   27.4523   -0.5288  -10.2006 C   0  0  0  0  0  0  0  0  0  0  0  0
   26.9847   -0.3085   -8.9078 C   0  0  0  0  0  0  0  0  0  0  0  0
   27.9353   -0.0855   -7.8462 C   0  0  0  0  0  0  0  0  0  0  0  0
   28.7109    0.1104   -6.9794 N   0  0  0  0  0  0  0  0  0  0  0  0
   25.6611   -0.3025   -8.6780 C   0  0  0  0  0  0  0  0  0  0  0  0
   21.2440    0.4193   -9.5870 C   0  0  0  0  0  0  0  0  0  0  0  0
   19.9297    0.0886  -10.2499 C   0  0  1  0  0  0  0  0  0  0  0  0
   19.7782    0.8562  -11.5159 C   0  0  0  0  0  0  0  0  0  0  0  0
   19.7323   -1.2724  -10.4700 O   0  0  0  0  0  0  0  0  0  0  0  0
  1  2  1  6
  3  2  1  6
  3  4  1  0
  4  5  1  1
  5  6  1  0
  6  7  2  0
  7  8  1  0
  8  9  1  0
  8 10  2  0
 10 11  1  0
 11 12  1  0
 12 13  3  0
 11 14  2  0
 15  4  1  1
 15 16  1  0
 17 16  1  6
 16 18  1  6
  2 18  1  6
 14  6  1  0
M  END
$$$$
