_rank17
     RDKit          3D

 18 19  0  0  0  0  0  0  0  0999 V2000
   20.4154   -0.8273   -8.4015 C   0  0  0  0  0  0  0  0  0  0  0  0
   21.1312   -0.7092   -9.7246 C   0  0  1  0  0  0  0  0  0  0  0  0
   22.3002   -1.6435   -9.8325 C   0  0  0  0  0  0  0  0  0  0  0  0
   23.2127   -1.0553  -10.9562 C   0  0  2  0  0  0  0  0  0  0  0  0
   24.0443   -0.1099  -10.3191 O   0  0  0  0  0  0  0  0  0  0  0  0
   25.1947   -0.4810   -9.6845 C   0  0  0  0  0  0  0  0  0  0  0  0
   25.4283   -1.7449   -9.2583 C   0  0  0  0  0  0  0  0  0  0  0  0
   26.6117   -2.0760   -8.6039 C   0  0  0  0  0  0  0  0  0  0  0  0
   26.8195   -3.3386   -8.1915 F   0  0  0  0  0  0  0  0  0  0  0  0
   27.5608   -1.1190   -8.3862 C   0  0  0  0  0  0  0  0  0  0  0  0
   27.3395    0.1862   -8.8178 C   0  0  0  0  0  0  0  0  0  0  0  0
   28.3534    1.1846   -8.5823 C   0  0  0  0  0  0  0  0  0  0  0  0
   29.1921    1.9911   -8.3896 N   0  0  0  0  0  0  0  0  0  0  0  0
   26.1915    0.4859   -9.4479 C   0  0  0  0  0  0  0  0  0  0  0  0
   22.3375   -0.3337  -11.9158 C   0  0  0  0  0  0  0  0  0  0  0  0
   20.9416   -0.9006  -11.9942 C   0  0  1  0  0  0  0  0  0  0  0  0
   20.9628   -2.2495  -12.6228 C   0  0  0  0  0  0  0  0  0  0  0  0
   20.2740   -0.9347  -10.7723 O   0  0  0  0  0  0  0  0  0  0  0  0
  1  2  1  6
  3  2  1  6
  3  4  1  0
  4  5  1  1
  5  6  1  0
  6  7  2  0
  7  8  1  0
  8  9  1  0
  8 10  2  0
 10 11  1  0
 11 12  1  0
 12 13  3  0
 11 14  2  0
 15  4  1  1
 15 16  1  0
 17 16  1  6
 16 18  1  1
  2 18  1  6
 14  6  1  0
M  END
$$$$
