_rank8
     RDKit          3D

 18 19  0  0  0  0  0  0  0  0999 V2000
   19.9472   -2.9111  -10.4459 C   0  0  0  0  0  0  0  0  0  0  0  0
   20.7877   -1.6587  -10.3987 C   0  0  1  0  0  0  0  0  0  0  0  0
   21.3269   -1.2758  -11.7455 C   0  0  0  0  0  0  0  0  0  0  0  0
   22.5473   -0.3412  -11.4652 C   0  0  2  0  0  0  0  0  0  0  0  0
   23.6527   -1.1988  -11.2813 O   0  0  0  0  0  0  0  0  0  0  0  0
   24.9149   -0.7109  -11.1005 C   0  0  0  0  0  0  0  0  0  0  0  0
   25.6145   -0.0912  -12.0803 C   0  0  0  0  0  0  0  0  0  0  0  0
   26.9051    0.3801  -11.8546 C   0  0  0  0  0  0  0  0  0  0  0  0
   27.5779    0.9928  -12.8442 F   0  0  0  0  0  0  0  0  0  0  0  0
   27.4830    0.2232  -10.6278 C   0  0  0  0  0  0  0  0  0  0  0  0
   26.7793   -0.4107   -9.6071 C   0  0  0  0  0  0  0  0  0  0  0  0
   27.4033   -0.5660   -8.3161 C   0  0  0  0  0  0  0  0  0  0  0  0
   27.9068   -0.6820   -7.2557 N   0  0  0  0  0  0  0  0  0  0  0  0
   25.5350   -0.8581   -9.8442 C   0  0  0  0  0  0  0  0  0  0  0  0
   22.2885    0.3659  -10.1844 C   0  0  0  0  0  0  0  0  0  0  0  0
   20.8209    0.5718   -9.9013 C   0  0  1  0  0  0  0  0  0  0  0  0
   20.2382    1.5481  -10.8616 C   0  0  0  0  0  0  0  0  0  0  0  0
   20.0770   -0.6055   -9.8802 O   0  0  0  0  0  0  0  0  0  0  0  0
  1  2  1  6
  3  2  1  6
  3  4  1  0
  4  5  1  1
  5  6  1  0
  6  7  2  0
  7  8  1  0
  8  9  1  0
  8 10  2  0
 10 11  1  0
 11 12  1  0
 12 13  3  0
 11 14  2  0
 15  4  1  1
 15 16  1  0
 17 16  1  6
 16 18  1  6
  2 18  1  6
 14  6  1  0
M  END
$$$$
