_rank2
     RDKit          3D

 18 19  0  0  0  0  0  0  0  0999 V2000
   27.0990    0.0480  -12.5669 C   0  0  0  0  0  0  0  0  0  0  0  0
   26.5376    0.0790  -11.1666 C   0  0  1  0  0  0  0  0  0  0  0  0
   25.5464   -1.0198  -10.9189 C   0  0  0  0  0  0  0  0  0  0  0  0
   24.6962   -0.5575   -9.6922 C   0  0  2  0  0  0  0  0  0  0  0  0
   23.6598    0.2398  -10.2226 O   0  0  0  0  0  0  0  0  0  0  0  0
   22.3738   -0.2129  -10.2944 C   0  0  0  0  0  0  0  0  0  0  0  0
   22.0431   -1.4178  -10.8163 C   0  0  0  0  0  0  0  0  0  0  0  0
   20.7159   -1.8338  -10.8808 C   0  0  0  0  0  0  0  0  0  0  0  0
   20.4143   -3.0354  -11.4029 F   0  0  0  0  0  0  0  0  0  0  0  0
   19.7239   -1.0228  -10.4096 C   0  0  0  0  0  0  0  0  0  0  0  0
   20.0440    0.2195   -9.8685 C   0  0  0  0  0  0  0  0  0  0  0  0
   18.9843    1.0630   -9.3727 C   0  0  0  0  0  0  0  0  0  0  0  0
   18.1101    1.7496   -8.9782 N   0  0  0  0  0  0  0  0  0  0  0  0
   21.3304    0.6028   -9.8146 C   0  0  0  0  0  0  0  0  0  0  0  0
   25.5598    0.3049   -8.8449 C   0  0  0  0  0  0  0  0  0  0  0  0
   27.0251   -0.0423   -8.9369 C   0  0  1  0  0  0  0  0  0  0  0  0
   27.2856   -1.3678   -8.3122 C   0  0  0  0  0  0  0  0  0  0  0  0
   27.5386    0.0041  -10.2308 O   0  0  0  0  0  0  0  0  0  0  0  0
  1  2  1  6
  3  2  1  6
  3  4  1  0
  4  5  1  6
  5  6  1  0
  6  7  2  0
  7  8  1  0
  8  9  1  0
  8 10  2  0
 10 11  1  0
 11 12  1  0
 12 13  3  0
 11 14  2  0
 15  4  1  1
 15 16  1  0
 17 16  1  6
 16 18  1  6
  2 18  1  1
 14  6  1  0
M  END
$$$$
