_rank5
     RDKit          3D

 18 19  0  0  0  0  0  0  0  0999 V2000
   19.7245   -2.9417  -10.8693 C   0  0  0  0  0  0  0  0  0  0  0  0
   20.4849   -1.6666  -10.5990 C   0  0  1  0  0  0  0  0  0  0  0  0
   21.3312   -1.2429  -11.7632 C   0  0  0  0  0  0  0  0  0  0  0  0
   22.4112   -0.2787  -11.1754 C   0  0  2  0  0  0  0  0  0  0  0  0
   23.4629   -1.1073  -10.7297 O   0  0  0  0  0  0  0  0  0  0  0  0
   24.7632   -0.6926  -10.7607 C   0  0  0  0  0  0  0  0  0  0  0  0
   25.4032   -0.3540  -11.9050 C   0  0  0  0  0  0  0  0  0  0  0  0
   26.7350    0.0519  -11.8911 C   0  0  0  0  0  0  0  0  0  0  0  0
   27.3471    0.3837  -13.0412 F   0  0  0  0  0  0  0  0  0  0  0  0
   27.4154    0.1166  -10.7092 C   0  0  0  0  0  0  0  0  0  0  0  0
   26.7743   -0.2267   -9.5218 C   0  0  0  0  0  0  0  0  0  0  0  0
   27.5066   -0.1503   -8.2816 C   0  0  0  0  0  0  0  0  0  0  0  0
   28.1163   -0.0829   -7.2741 N   0  0  0  0  0  0  0  0  0  0  0  0
   25.4889   -0.6154   -9.5558 C   0  0  0  0  0  0  0  0  0  0  0  0
   21.8170    0.3962   -9.9927 C   0  0  0  0  0  0  0  0  0  0  0  0
   20.3194    0.5541  -10.0845 C   0  0  1  0  0  0  0  0  0  0  0  0
   19.9639    1.5311  -11.1494 C   0  0  0  0  0  0  0  0  0  0  0  0
   19.6328   -0.6444  -10.2637 O   0  0  0  0  0  0  0  0  0  0  0  0
  1  2  1  6
  3  2  1  6
  3  4  1  0
  4  5  1  1
  5  6  1  0
  6  7  2  0
  7  8  1  0
  8  9  1  0
  8 10  2  0
 10 11  1  0
 11 12  1  0
 12 13  3  0
 11 14  2  0
 15  4  1  1
 15 16  1  0
 17 16  1  6
 16 18  1  6
  2 18  1  6
 14  6  1  0
M  END
$$$$
