_rank9
     RDKit          3D

 18 19  0  0  0  0  0  0  0  0999 V2000
   19.8788   -2.9129  -10.6839 C   0  0  0  0  0  0  0  0  0  0  0  0
   20.6805   -1.6735  -10.3704 C   0  0  1  0  0  0  0  0  0  0  0  0
   21.3843   -1.1226  -11.5756 C   0  0  0  0  0  0  0  0  0  0  0  0
   22.5382   -0.2264  -11.0217 C   0  0  2  0  0  0  0  0  0  0  0  0
   23.6269   -1.0965  -10.8002 O   0  0  0  0  0  0  0  0  0  0  0  0
   24.9098   -0.6347  -10.7317 C   0  0  0  0  0  0  0  0  0  0  0  0
   25.5743   -0.1387  -11.8022 C   0  0  0  0  0  0  0  0  0  0  0  0
   26.8874    0.3100  -11.6888 C   0  0  0  0  0  0  0  0  0  0  0  0
   27.5245    0.7989  -12.7670 F   0  0  0  0  0  0  0  0  0  0  0  0
   27.5240    0.2569  -10.4822 C   0  0  0  0  0  0  0  0  0  0  0  0
   26.8571   -0.2490   -9.3695 C   0  0  0  0  0  0  0  0  0  0  0  0
   27.5430   -0.2957   -8.1016 C   0  0  0  0  0  0  0  0  0  0  0  0
   28.0949   -0.3432   -7.0602 N   0  0  0  0  0  0  0  0  0  0  0  0
   25.5902   -0.6766   -9.4989 C   0  0  0  0  0  0  0  0  0  0  0  0
   22.0990    0.3133   -9.7090 C   0  0  0  0  0  0  0  0  0  0  0  0
   20.6031    0.4770   -9.6003 C   0  0  1  0  0  0  0  0  0  0  0  0
   20.1322    1.5641  -10.5010 C   0  0  0  0  0  0  0  0  0  0  0  0
   19.8867   -0.6962   -9.8245 O   0  0  0  0  0  0  0  0  0  0  0  0
  1  2  1  6
  3  2  1  6
  3  4  1  0
  4  5  1  1
  5  6  1  0
  6  7  2  0
  7  8  1  0
  8  9  1  0
  8 10  2  0
 10 11  1  0
 11 12  1  0
 12 13  3  0
 11 14  2  0
 15  4  1  1
 15 16  1  0
 17 16  1  6
 16 18  1  6
  2 18  1  6
 14  6  1  0
M  END
$$$$
