_rank7
     RDKit          3D

 18 19  0  0  0  0  0  0  0  0999 V2000
   27.6298    1.6341  -10.7413 C   0  0  0  0  0  0  0  0  0  0  0  0
   26.8840    0.5829   -9.9566 C   0  0  1  0  0  0  0  0  0  0  0  0
   26.0262   -0.2861  -10.8285 C   0  0  0  0  0  0  0  0  0  0  0  0
   24.9622   -0.9238   -9.8784 C   0  0  2  0  0  0  0  0  0  0  0  0
   23.9094    0.0124   -9.7985 O   0  0  0  0  0  0  0  0  0  0  0  0
   22.6593   -0.2747  -10.2661 C   0  0  0  0  0  0  0  0  0  0  0  0
   22.4372   -1.0622  -11.3450 C   0  0  0  0  0  0  0  0  0  0  0  0
   21.1445   -1.3183  -11.7946 C   0  0  0  0  0  0  0  0  0  0  0  0
   20.9512   -2.1045  -12.8678 F   0  0  0  0  0  0  0  0  0  0  0  0
   20.0758   -0.7742  -11.1421 C   0  0  0  0  0  0  0  0  0  0  0  0
   20.2837    0.0376  -10.0302 C   0  0  0  0  0  0  0  0  0  0  0  0
   19.1437    0.6024   -9.3507 C   0  0  0  0  0  0  0  0  0  0  0  0
   18.2047    1.0524   -8.7966 N   0  0  0  0  0  0  0  0  0  0  0  0
   21.5383    0.2724   -9.6114 C   0  0  0  0  0  0  0  0  0  0  0  0
   25.5776   -1.0483   -8.5318 C   0  0  0  0  0  0  0  0  0  0  0  0
   27.0752   -1.2264   -8.5733 C   0  0  1  0  0  0  0  0  0  0  0  0
   27.4251   -2.5553   -9.1448 C   0  0  0  0  0  0  0  0  0  0  0  0
   27.7491   -0.2073   -9.2422 O   0  0  0  0  0  0  0  0  0  0  0  0
  1  2  1  6
  3  2  1  6
  3  4  1  0
  4  5  1  1
  5  6  1  0
  6  7  2  0
  7  8  1  0
  8  9  1  0
  8 10  2  0
 10 11  1  0
 11 12  1  0
 12 13  3  0
 11 14  2  0
 15  4  1  1
 15 16  1  0
 17 16  1  6
 16 18  1  6
  2 18  1  6
 14  6  1  0
M  END
$$$$
