_rank20
     RDKit          3D

 18 19  0  0  0  0  0  0  0  0999 V2000
   17.1693   -1.5707  -12.6718 C   0  0  0  0  0  0  0  0  0  0  0  0
   18.4791   -2.2237  -12.3045 C   0  0  1  0  0  0  0  0  0  0  0  0
   18.9226   -1.8823  -10.9124 C   0  0  0  0  0  0  0  0  0  0  0  0
   20.4595   -2.1619  -10.8749 C   0  0  2  0  0  0  0  0  0  0  0  0
   21.0753   -0.9828  -11.3458 O   0  0  0  0  0  0  0  0  0  0  0  0
   21.6575   -0.0897  -10.4932 C   0  0  0  0  0  0  0  0  0  0  0  0
   21.0939    1.0986  -10.1707 C   0  0  0  0  0  0  0  0  0  0  0  0
   21.7299    1.9850   -9.3056 C   0  0  0  0  0  0  0  0  0  0  0  0
   21.1485    3.1582   -9.0007 F   0  0  0  0  0  0  0  0  0  0  0  0
   22.9405    1.6592   -8.7650 C   0  0  0  0  0  0  0  0  0  0  0  0
   23.5358    0.4415   -9.0838 C   0  0  0  0  0  0  0  0  0  0  0  0
   24.8136    0.1115   -8.5020 C   0  0  0  0  0  0  0  0  0  0  0  0
   25.8540   -0.1711   -8.0236 N   0  0  0  0  0  0  0  0  0  0  0  0
   22.9062   -0.4005   -9.9200 C   0  0  0  0  0  0  0  0  0  0  0  0
   20.7426   -3.2534  -11.8423 C   0  0  0  0  0  0  0  0  0  0  0  0
   19.5856   -4.2041  -12.0262 C   0  0  1  0  0  0  0  0  0  0  0  0
   19.3661   -5.0015  -10.7889 C   0  0  0  0  0  0  0  0  0  0  0  0
   18.4048   -3.5879  -12.4335 O   0  0  0  0  0  0  0  0  0  0  0  0
  1  2  1  6
  3  2  1  6
  3  4  1  0
  4  5  1  6
  5  6  1  0
  6  7  2  0
  7  8  1  0
  8  9  1  0
  8 10  2  0
 10 11  1  0
 11 12  1  0
 12 13  3  0
 11 14  2  0
 15  4  1  1
 15 16  1  0
 17 16  1  6
 16 18  1  1
  2 18  1  1
 14  6  1  0
M  END
$$$$
