_rank3
     RDKit          3D

 18 19  0  0  0  0  0  0  0  0999 V2000
   27.5534    0.8944  -12.0103 C   0  0  0  0  0  0  0  0  0  0  0  0
   26.6594    0.4490  -10.8792 C   0  0  1  0  0  0  0  0  0  0  0  0
   26.3035   -1.0060  -10.9650 C   0  0  0  0  0  0  0  0  0  0  0  0
   25.0146   -1.1806  -10.0992 C   0  0  2  0  0  0  0  0  0  0  0  0
   23.9340   -0.8796  -10.9553 O   0  0  0  0  0  0  0  0  0  0  0  0
   22.6449   -0.8730  -10.5057 C   0  0  0  0  0  0  0  0  0  0  0  0
   22.0665   -1.9406   -9.9063 C   0  0  0  0  0  0  0  0  0  0  0  0
   20.7437   -1.8934   -9.4742 C   0  0  0  0  0  0  0  0  0  0  0  0
   20.1933   -2.9669   -8.8810 F   0  0  0  0  0  0  0  0  0  0  0  0
   20.0097   -0.7557   -9.6497 C   0  0  0  0  0  0  0  0  0  0  0  0
   20.5871    0.3528  -10.2632 C   0  0  0  0  0  0  0  0  0  0  0  0
   19.7987    1.5478  -10.4385 C   0  0  0  0  0  0  0  0  0  0  0  0
   19.1435    2.5174  -10.5866 N   0  0  0  0  0  0  0  0  0  0  0  0
   21.8648    0.2880  -10.6727 C   0  0  0  0  0  0  0  0  0  0  0  0
   25.0537   -0.1583   -9.0217 C   0  0  0  0  0  0  0  0  0  0  0  0
   26.4543    0.2267   -8.6138 C   0  0  1  0  0  0  0  0  0  0  0  0
   27.1250   -0.9079   -7.9225 C   0  0  0  0  0  0  0  0  0  0  0  0
   27.2397    0.7014   -9.6615 O   0  0  0  0  0  0  0  0  0  0  0  0
  1  2  1  6
  3  2  1  6
  3  4  1  0
  4  5  1  6
  5  6  1  0
  6  7  2  0
  7  8  1  0
  8  9  1  0
  8 10  2  0
 10 11  1  0
 11 12  1  0
 12 13  3  0
 11 14  2  0
 15  4  1  1
 15 16  1  0
 17 16  1  6
 16 18  1  6
  2 18  1  1
 14  6  1  0
M  END
$$$$
