_rank18
     RDKit          3D

 18 19  0  0  0  0  0  0  0  0999 V2000
   20.3554   -1.1517  -13.2273 C   0  0  0  0  0  0  0  0  0  0  0  0
   20.9977   -1.1430  -11.8619 C   0  0  1  0  0  0  0  0  0  0  0  0
   21.5991    0.1875  -11.5166 C   0  0  0  0  0  0  0  0  0  0  0  0
   22.6399   -0.0964  -10.3863 C   0  0  2  0  0  0  0  0  0  0  0  0
   23.8358   -0.4507  -11.0464 O   0  0  0  0  0  0  0  0  0  0  0  0
   25.0498   -0.3533  -10.4296 C   0  0  0  0  0  0  0  0  0  0  0  0
   25.1904   -0.0209   -9.1244 C   0  0  0  0  0  0  0  0  0  0  0  0
   26.4499    0.0789   -8.5394 C   0  0  0  0  0  0  0  0  0  0  0  0
   26.5621    0.4097   -7.2412 F   0  0  0  0  0  0  0  0  0  0  0  0
   27.5683   -0.1638   -9.2839 C   0  0  0  0  0  0  0  0  0  0  0  0
   27.4442   -0.5078  -10.6275 C   0  0  0  0  0  0  0  0  0  0  0  0
   28.6355   -0.7636  -11.3992 C   0  0  0  0  0  0  0  0  0  0  0  0
   29.6025   -0.9710  -12.0419 N   0  0  0  0  0  0  0  0  0  0  0  0
   26.2203   -0.5995  -11.1736 C   0  0  0  0  0  0  0  0  0  0  0  0
   22.1632   -1.2774   -9.6211 C   0  0  0  0  0  0  0  0  0  0  0  0
   20.6613   -1.4212   -9.6184 C   0  0  1  0  0  0  0  0  0  0  0  0
   20.0356   -0.3268   -8.8274 C   0  0  0  0  0  0  0  0  0  0  0  0
   20.0968   -1.4979  -10.8894 O   0  0  0  0  0  0  0  0  0  0  0  0
  1  2  1  6
  3  2  1  6
  3  4  1  0
  4  5  1  6
  5  6  1  0
  6  7  2  0
  7  8  1  0
  8  9  1  0
  8 10  2  0
 10 11  1  0
 11 12  1  0
 12 13  3  0
 11 14  2  0
 15  4  1  1
 15 16  1  0
 17 16  1  6
 16 18  1  6
  2 18  1  1
 14  6  1  0
M  END
$$$$
