_rank14
     RDKit          3D

 17 18  0  0  0  0  0  0  0  0999 V2000
   26.2844   -0.5820   -7.5769 N   0  0  0  0  0  0  0  0  0  0  0  0
   26.2050   -0.4169   -8.7197 C   0  0  0  0  0  0  0  0  0  0  0  0
   26.1274   -0.2196  -10.1597 C   0  0  0  0  0  0  0  0  0  0  0  0
   27.2975   -0.2259  -10.9040 C   0  0  0  0  0  0  0  0  0  0  0  0
   27.3300   -0.0386  -12.2699 C   0  0  0  0  0  0  0  0  0  0  0  0
   28.5175   -0.0566  -12.9424 F   0  0  0  0  0  0  0  0  0  0  0  0
   26.1332    0.1651  -12.9241 C   0  0  0  0  0  0  0  0  0  0  0  0
   24.9586    0.1749  -12.2034 C   0  0  0  0  0  0  0  0  0  0  0  0
   24.9323   -0.0161  -10.8165 C   0  0  0  0  0  0  0  0  0  0  0  0
   23.7698   -0.0055  -10.1033 O   0  0  0  0  0  0  0  0  0  0  0  0
   22.5872   -0.6387  -10.4095 C   0  0  0  0  0  0  0  0  0  0  0  0
   22.4981   -1.6707  -11.3146 C   0  0  0  0  0  0  0  0  0  0  0  0
   21.2785   -2.2880  -11.5967 C   0  0  0  0  0  0  0  0  0  0  0  0
   20.1417   -1.8617  -10.9623 C   0  0  0  0  0  0  0  0  0  0  0  0
   20.2005   -0.8232  -10.0451 C   0  0  0  0  0  0  0  0  0  0  0  0
   19.0581   -0.4246   -9.4344 F   0  0  0  0  0  0  0  0  0  0  0  0
   21.4308   -0.2294   -9.7861 C   0  0  0  0  0  0  0  0  0  0  0  0
  1  2  3  0
  2  3  1  0
  3  4  2  0
  4  5  1  0
  5  6  1  0
  5  7  2  0
  7  8  1  0
  8  9  2  0
  9 10  1  0
 10 11  1  0
 11 12  2  0
 12 13  1  0
 13 14  2  0
 14 15  1  0
 15 16  1  0
 15 17  2  0
  9  3  1  0
 17 11  1  0
M  END
$$$$
