_rank12
     RDKit          3D

 17 18  0  0  0  0  0  0  0  0999 V2000
   26.3244   -0.5321   -7.5388 N   0  0  0  0  0  0  0  0  0  0  0  0
   26.1989   -0.3725   -8.6782 C   0  0  0  0  0  0  0  0  0  0  0  0
   26.0382   -0.1961  -10.1140 C   0  0  0  0  0  0  0  0  0  0  0  0
   27.1683   -0.1360  -10.9155 C   0  0  0  0  0  0  0  0  0  0  0  0
   27.1217    0.0383  -12.2826 C   0  0  0  0  0  0  0  0  0  0  0  0
   28.2734    0.0886  -13.0132 F   0  0  0  0  0  0  0  0  0  0  0  0
   25.8836    0.1584  -12.8782 C   0  0  0  0  0  0  0  0  0  0  0  0
   24.7476    0.1013  -12.1001 C   0  0  0  0  0  0  0  0  0  0  0  0
   24.8017   -0.0761  -10.7122 C   0  0  0  0  0  0  0  0  0  0  0  0
   23.6773   -0.1317   -9.9421 O   0  0  0  0  0  0  0  0  0  0  0  0
   22.4423   -0.6296  -10.2886 C   0  0  0  0  0  0  0  0  0  0  0  0
   22.2326   -1.9410  -10.6470 C   0  0  0  0  0  0  0  0  0  0  0  0
   20.9628   -2.4074  -10.9907 C   0  0  0  0  0  0  0  0  0  0  0  0
   19.8979   -1.5458  -10.9732 C   0  0  0  0  0  0  0  0  0  0  0  0
   20.0788   -0.2180  -10.6162 C   0  0  0  0  0  0  0  0  0  0  0  0
   19.0051    0.6091  -10.6088 F   0  0  0  0  0  0  0  0  0  0  0  0
   21.3562    0.2152  -10.2790 C   0  0  0  0  0  0  0  0  0  0  0  0
  1  2  3  0
  2  3  1  0
  3  4  2  0
  4  5  1  0
  5  6  1  0
  5  7  2  0
  7  8  1  0
  8  9  2  0
  9 10  1  0
 10 11  1  0
 11 12  2  0
 12 13  1  0
 13 14  2  0
 14 15  1  0
 15 16  1  0
 15 17  2  0
  9  3  1  0
 17 11  1  0
M  END
$$$$
