_rank3
     RDKit          3D

 17 18  0  0  0  0  0  0  0  0999 V2000
   26.5582   -0.0835  -13.5233 N   0  0  0  0  0  0  0  0  0  0  0  0
   26.4347   -0.1179  -12.3731 C   0  0  0  0  0  0  0  0  0  0  0  0
   26.2829   -0.1856  -10.9271 C   0  0  0  0  0  0  0  0  0  0  0  0
   27.4092   -0.3726  -10.1400 C   0  0  0  0  0  0  0  0  0  0  0  0
   27.3687   -0.4596   -8.7643 C   0  0  0  0  0  0  0  0  0  0  0  0
   28.5162   -0.6444   -8.0489 F   0  0  0  0  0  0  0  0  0  0  0  0
   26.1411   -0.3543   -8.1447 C   0  0  0  0  0  0  0  0  0  0  0  0
   25.0091   -0.1680   -8.9082 C   0  0  0  0  0  0  0  0  0  0  0  0
   25.0569   -0.0803  -10.3049 C   0  0  0  0  0  0  0  0  0  0  0  0
   23.9363    0.1033  -11.0605 O   0  0  0  0  0  0  0  0  0  0  0  0
   22.7049   -0.4892  -10.8997 C   0  0  0  0  0  0  0  0  0  0  0  0
   22.5001   -1.8442  -11.0185 C   0  0  0  0  0  0  0  0  0  0  0  0
   21.2343   -2.4067  -10.8465 C   0  0  0  0  0  0  0  0  0  0  0  0
   20.1685   -1.5975  -10.5532 C   0  0  0  0  0  0  0  0  0  0  0  0
   20.3445   -0.2277  -10.4275 C   0  0  0  0  0  0  0  0  0  0  0  0
   19.2700    0.5456  -10.1368 F   0  0  0  0  0  0  0  0  0  0  0  0
   21.6181    0.3014  -10.6047 C   0  0  0  0  0  0  0  0  0  0  0  0
  1  2  3  0
  2  3  1  0
  3  4  2  0
  4  5  1  0
  5  6  1  0
  5  7  2  0
  7  8  1  0
  8  9  2  0
  9 10  1  0
 10 11  1  0
 11 12  2  0
 12 13  1  0
 13 14  2  0
 14 15  1  0
 15 16  1  0
 15 17  2  0
  9  3  1  0
 17 11  1  0
M  END
$$$$
