_rank2
     RDKit          3D

 17 18  0  0  0  0  0  0  0  0999 V2000
   26.6295   -0.0144  -13.2987 N   0  0  0  0  0  0  0  0  0  0  0  0
   26.4509   -0.1256  -12.1606 C   0  0  0  0  0  0  0  0  0  0  0  0
   26.2469   -0.2525  -10.7250 C   0  0  0  0  0  0  0  0  0  0  0  0
   27.3042    0.0153   -9.8686 C   0  0  0  0  0  0  0  0  0  0  0  0
   27.2144   -0.0852   -8.4962 C   0  0  0  0  0  0  0  0  0  0  0  0
   28.2947    0.1933   -7.7101 F   0  0  0  0  0  0  0  0  0  0  0  0
   26.0075   -0.4730   -7.9530 C   0  0  0  0  0  0  0  0  0  0  0  0
   24.9438   -0.7438   -8.7862 C   0  0  0  0  0  0  0  0  0  0  0  0
   25.0414   -0.6396  -10.1792 C   0  0  0  0  0  0  0  0  0  0  0  0
   23.9887   -0.9086  -11.0037 O   0  0  0  0  0  0  0  0  0  0  0  0
   22.6467   -0.8038  -10.7188 C   0  0  0  0  0  0  0  0  0  0  0  0
   22.0636    0.3522  -10.2541 C   0  0  0  0  0  0  0  0  0  0  0  0
   20.6970    0.4179   -9.9779 C   0  0  0  0  0  0  0  0  0  0  0  0
   19.9137   -0.6892  -10.1714 C   0  0  0  0  0  0  0  0  0  0  0  0
   20.4736   -1.8687  -10.6388 C   0  0  0  0  0  0  0  0  0  0  0  0
   19.6717   -2.9464  -10.8197 F   0  0  0  0  0  0  0  0  0  0  0  0
   21.8380   -1.9014  -10.9046 C   0  0  0  0  0  0  0  0  0  0  0  0
  1  2  3  0
  2  3  1  0
  3  4  2  0
  4  5  1  0
  5  6  1  0
  5  7  2  0
  7  8  1  0
  8  9  2  0
  9 10  1  0
 10 11  1  0
 11 12  2  0
 12 13  1  0
 13 14  2  0
 14 15  1  0
 15 16  1  0
 15 17  2  0
  9  3  1  0
 17 11  1  0
M  END
$$$$
