_rank17
     RDKit          3D

 17 18  0  0  0  0  0  0  0  0999 V2000
   23.7688    1.1753  -13.7059 N   0  0  0  0  0  0  0  0  0  0  0  0
   23.3625    0.4128  -12.9358 C   0  0  0  0  0  0  0  0  0  0  0  0
   22.8409   -0.5276  -11.9549 C   0  0  0  0  0  0  0  0  0  0  0  0
   21.4870   -0.8275  -11.9634 C   0  0  0  0  0  0  0  0  0  0  0  0
   20.8958   -1.6968  -11.0710 C   0  0  0  0  0  0  0  0  0  0  0  0
   19.5558   -1.9481  -11.1347 F   0  0  0  0  0  0  0  0  0  0  0  0
   21.6981   -2.2962  -10.1229 C   0  0  0  0  0  0  0  0  0  0  0  0
   23.0464   -2.0122  -10.0969 C   0  0  0  0  0  0  0  0  0  0  0  0
   23.6407   -1.1286  -11.0061 C   0  0  0  0  0  0  0  0  0  0  0  0
   24.9750   -0.8470  -10.9796 O   0  0  0  0  0  0  0  0  0  0  0  0
   25.7551   -0.5639   -9.8821 C   0  0  0  0  0  0  0  0  0  0  0  0
   25.2813    0.0947   -8.7712 C   0  0  0  0  0  0  0  0  0  0  0  0
   26.1056    0.3619   -7.6770 C   0  0  0  0  0  0  0  0  0  0  0  0
   27.4158   -0.0373   -7.7034 C   0  0  0  0  0  0  0  0  0  0  0  0
   27.9216   -0.7030   -8.8098 C   0  0  0  0  0  0  0  0  0  0  0  0
   29.2221   -1.0846   -8.8051 F   0  0  0  0  0  0  0  0  0  0  0  0
   27.0746   -0.9540   -9.8835 C   0  0  0  0  0  0  0  0  0  0  0  0
  1  2  3  0
  2  3  1  0
  3  4  2  0
  4  5  1  0
  5  6  1  0
  5  7  2  0
  7  8  1  0
  8  9  2  0
  9 10  1  0
 10 11  1  0
 11 12  2  0
 12 13  1  0
 13 14  2  0
 14 15  1  0
 15 16  1  0
 15 17  2  0
  9  3  1  0
 17 11  1  0
M  END
$$$$
