_rank18
     RDKit          3D

 17 18  0  0  0  0  0  0  0  0999 V2000
   24.6961    0.2430   -7.0259 N   0  0  0  0  0  0  0  0  0  0  0  0
   25.2145   -0.0728   -8.0113 C   0  0  0  0  0  0  0  0  0  0  0  0
   25.8777   -0.4480   -9.2515 C   0  0  0  0  0  0  0  0  0  0  0  0
   27.1921   -0.8876   -9.2056 C   0  0  0  0  0  0  0  0  0  0  0  0
   27.9093   -1.2562  -10.3243 C   0  0  0  0  0  0  0  0  0  0  0  0
   29.2014   -1.6804  -10.2088 F   0  0  0  0  0  0  0  0  0  0  0  0
   27.2811   -1.1816  -11.5498 C   0  0  0  0  0  0  0  0  0  0  0  0
   25.9749   -0.7476  -11.6178 C   0  0  0  0  0  0  0  0  0  0  0  0
   25.2520   -0.3748  -10.4780 C   0  0  0  0  0  0  0  0  0  0  0  0
   23.9595    0.0556  -10.5456 O   0  0  0  0  0  0  0  0  0  0  0  0
   22.8211   -0.7093  -10.6566 C   0  0  0  0  0  0  0  0  0  0  0  0
   22.8059   -2.0701  -10.4562 C   0  0  0  0  0  0  0  0  0  0  0  0
   21.6287   -2.8104  -10.5772 C   0  0  0  0  0  0  0  0  0  0  0  0
   20.4599   -2.1742  -10.9026 C   0  0  0  0  0  0  0  0  0  0  0  0
   20.4446   -0.8032  -11.1108 C   0  0  0  0  0  0  0  0  0  0  0  0
   19.2722   -0.2036  -11.4316 F   0  0  0  0  0  0  0  0  0  0  0  0
   21.6340   -0.0946  -10.9825 C   0  0  0  0  0  0  0  0  0  0  0  0
  1  2  3  0
  2  3  1  0
  3  4  2  0
  4  5  1  0
  5  6  1  0
  5  7  2  0
  7  8  1  0
  8  9  2  0
  9 10  1  0
 10 11  1  0
 11 12  2  0
 12 13  1  0
 13 14  2  0
 14 15  1  0
 15 16  1  0
 15 17  2  0
  9  3  1  0
 17 11  1  0
M  END
$$$$
