_rank20
     RDKit          3D

 17 18  0  0  0  0  0  0  0  0999 V2000
   23.5494   -2.7328  -13.5114 N   0  0  0  0  0  0  0  0  0  0  0  0
   23.1215   -2.0718  -12.6631 C   0  0  0  0  0  0  0  0  0  0  0  0
   22.5627   -1.2373  -11.6096 C   0  0  0  0  0  0  0  0  0  0  0  0
   21.2059   -1.3183  -11.3350 C   0  0  0  0  0  0  0  0  0  0  0  0
   20.5808   -0.5637  -10.3647 C   0  0  0  0  0  0  0  0  0  0  0  0
   19.2399   -0.6926  -10.1454 F   0  0  0  0  0  0  0  0  0  0  0  0
   21.3505    0.3156   -9.6325 C   0  0  0  0  0  0  0  0  0  0  0  0
   22.7011    0.4116   -9.8890 C   0  0  0  0  0  0  0  0  0  0  0  0
   23.3300   -0.3576  -10.8757 C   0  0  0  0  0  0  0  0  0  0  0  0
   24.6666   -0.2618  -11.1300 O   0  0  0  0  0  0  0  0  0  0  0  0
   25.7048   -0.3657  -10.2332 C   0  0  0  0  0  0  0  0  0  0  0  0
   25.6175   -1.0779   -9.0595 C   0  0  0  0  0  0  0  0  0  0  0  0
   26.6951   -1.1599   -8.1762 C   0  0  0  0  0  0  0  0  0  0  0  0
   27.8678   -0.5194   -8.4782 C   0  0  0  0  0  0  0  0  0  0  0  0
   27.9853    0.2064   -9.6541 C   0  0  0  0  0  0  0  0  0  0  0  0
   29.1587    0.8287   -9.9239 F   0  0  0  0  0  0  0  0  0  0  0  0
   26.8935    0.2684  -10.5129 C   0  0  0  0  0  0  0  0  0  0  0  0
  1  2  3  0
  2  3  1  0
  3  4  2  0
  4  5  1  0
  5  6  1  0
  5  7  2  0
  7  8  1  0
  8  9  2  0
  9 10  1  0
 10 11  1  0
 11 12  2  0
 12 13  1  0
 13 14  2  0
 14 15  1  0
 15 16  1  0
 15 17  2  0
  9  3  1  0
 17 11  1  0
M  END
$$$$
