_rank1
     RDKit          3D

 17 18  0  0  0  0  0  0  0  0999 V2000
   25.8167    1.0276  -13.6045 N   0  0  0  0  0  0  0  0  0  0  0  0
   25.7434    0.6463  -12.5143 C   0  0  0  0  0  0  0  0  0  0  0  0
   25.6578    0.1441  -11.1508 C   0  0  0  0  0  0  0  0  0  0  0  0
   26.7725    0.2305  -10.3304 C   0  0  0  0  0  0  0  0  0  0  0  0
   26.7950   -0.2248   -9.0289 C   0  0  0  0  0  0  0  0  0  0  0  0
   27.9268   -0.1089   -8.2750 F   0  0  0  0  0  0  0  0  0  0  0  0
   25.6458   -0.7948   -8.5224 C   0  0  0  0  0  0  0  0  0  0  0  0
   24.5266   -0.8903   -9.3208 C   0  0  0  0  0  0  0  0  0  0  0  0
   24.5102   -0.4259  -10.6417 C   0  0  0  0  0  0  0  0  0  0  0  0
   23.4027   -0.5214  -11.4320 O   0  0  0  0  0  0  0  0  0  0  0  0
   22.0980   -0.7062  -11.0359 C   0  0  0  0  0  0  0  0  0  0  0  0
   21.5313   -1.9482  -10.8666 C   0  0  0  0  0  0  0  0  0  0  0  0
   20.2033   -2.0931  -10.4621 C   0  0  0  0  0  0  0  0  0  0  0  0
   19.4421   -0.9786  -10.2272 C   0  0  0  0  0  0  0  0  0  0  0  0
   19.9862    0.2866  -10.3898 C   0  0  0  0  0  0  0  0  0  0  0  0
   19.2069    1.3692  -10.1495 F   0  0  0  0  0  0  0  0  0  0  0  0
   21.3121    0.3969  -10.7936 C   0  0  0  0  0  0  0  0  0  0  0  0
  1  2  3  0
  2  3  1  0
  3  4  2  0
  4  5  1  0
  5  6  1  0
  5  7  2  0
  7  8  1  0
  8  9  2  0
  9 10  1  0
 10 11  1  0
 11 12  2  0
 12 13  1  0
 13 14  2  0
 14 15  1  0
 15 16  1  0
 15 17  2  0
  9  3  1  0
 17 11  1  0
M  END
$$$$
