_rank19
     RDKit          3D

 17 18  0  0  0  0  0  0  0  0999 V2000
   23.7018    0.8463  -14.1433 N   0  0  0  0  0  0  0  0  0  0  0  0
   23.3178    0.2308  -13.2416 C   0  0  0  0  0  0  0  0  0  0  0  0
   22.8559   -0.5386  -12.0956 C   0  0  0  0  0  0  0  0  0  0  0  0
   21.5387   -0.9707  -12.0616 C   0  0  0  0  0  0  0  0  0  0  0  0
   21.0037   -1.6961  -11.0179 C   0  0  0  0  0  0  0  0  0  0  0  0
   19.6976   -2.0907  -11.0476 F   0  0  0  0  0  0  0  0  0  0  0  0
   21.8268   -2.0048   -9.9552 C   0  0  0  0  0  0  0  0  0  0  0  0
   23.1394   -1.5852   -9.9689 C   0  0  0  0  0  0  0  0  0  0  0  0
   23.6766   -0.8490  -11.0320 C   0  0  0  0  0  0  0  0  0  0  0  0
   24.9755   -0.4331  -11.0450 O   0  0  0  0  0  0  0  0  0  0  0  0
   25.8522   -0.3739   -9.9862 C   0  0  0  0  0  0  0  0  0  0  0  0
   25.6896    0.4810   -8.9209 C   0  0  0  0  0  0  0  0  0  0  0  0
   26.6019    0.5094   -7.8648 C   0  0  0  0  0  0  0  0  0  0  0  0
   27.6848   -0.3293   -7.8835 C   0  0  0  0  0  0  0  0  0  0  0  0
   27.8751   -1.2019   -8.9444 C   0  0  0  0  0  0  0  0  0  0  0  0
   28.9566   -2.0188   -8.9333 F   0  0  0  0  0  0  0  0  0  0  0  0
   26.9482   -1.2059   -9.9808 C   0  0  0  0  0  0  0  0  0  0  0  0
  1  2  3  0
  2  3  1  0
  3  4  2  0
  4  5  1  0
  5  6  1  0
  5  7  2  0
  7  8  1  0
  8  9  2  0
  9 10  1  0
 10 11  1  0
 11 12  2  0
 12 13  1  0
 13 14  2  0
 14 15  1  0
 15 16  1  0
 15 17  2  0
  9  3  1  0
 17 11  1  0
M  END
$$$$
