_rank15
     RDKit          3D

 17 18  0  0  0  0  0  0  0  0999 V2000
   26.4077    1.2474  -13.2494 N   0  0  0  0  0  0  0  0  0  0  0  0
   26.4520    0.7050  -12.2280 C   0  0  0  0  0  0  0  0  0  0  0  0
   26.5283    0.0112  -10.9507 C   0  0  0  0  0  0  0  0  0  0  0  0
   27.6446    0.1971  -10.1494 C   0  0  0  0  0  0  0  0  0  0  0  0
   27.8151   -0.4215   -8.9287 C   0  0  0  0  0  0  0  0  0  0  0  0
   28.9395   -0.1945   -8.1893 F   0  0  0  0  0  0  0  0  0  0  0  0
   26.8199   -1.2681   -8.4873 C   0  0  0  0  0  0  0  0  0  0  0  0
   25.7018   -1.4667   -9.2681 C   0  0  0  0  0  0  0  0  0  0  0  0
   25.5346   -0.8354  -10.5067 C   0  0  0  0  0  0  0  0  0  0  0  0
   24.4284   -1.0328  -11.2797 O   0  0  0  0  0  0  0  0  0  0  0  0
   23.1106   -0.8539  -10.9267 C   0  0  0  0  0  0  0  0  0  0  0  0
   22.7172   -0.4089   -9.6859 C   0  0  0  0  0  0  0  0  0  0  0  0
   21.3688   -0.2393   -9.3674 C   0  0  0  0  0  0  0  0  0  0  0  0
   20.4114   -0.5205  -10.3060 C   0  0  0  0  0  0  0  0  0  0  0  0
   20.7779   -0.9710  -11.5653 C   0  0  0  0  0  0  0  0  0  0  0  0
   19.8068   -1.2406  -12.4716 F   0  0  0  0  0  0  0  0  0  0  0  0
   22.1294   -1.1294  -11.8512 C   0  0  0  0  0  0  0  0  0  0  0  0
  1  2  3  0
  2  3  1  0
  3  4  2  0
  4  5  1  0
  5  6  1  0
  5  7  2  0
  7  8  1  0
  8  9  2  0
  9 10  1  0
 10 11  1  0
 11 12  2  0
 12 13  1  0
 13 14  2  0
 14 15  1  0
 15 16  1  0
 15 17  2  0
  9  3  1  0
 17 11  1  0
M  END
$$$$
