_rank18
     RDKit          3D

 18 19  0  0  0  0  0  0  0  0999 V2000
   18.9601   -2.2991  -14.1072 C   0  0  0  0  0  0  0  0  0  0  0  0
   18.9744   -1.2123  -13.0807 C   0  0  0  0  0  0  0  0  0  0  0  0
   19.1876   -1.6172  -11.7418 N   0  0  0  0  0  0  0  0  0  0  0  0
   20.1765   -0.9810  -10.9792 C   0  0  1  0  0  0  0  0  0  0  0  0
   20.0701   -1.2160   -9.4868 C   0  0  0  0  0  0  0  0  0  0  0  0
   21.2756   -0.4355   -8.9939 C   0  0  0  0  0  0  0  0  0  0  0  0
   22.2952   -0.4716  -10.1448 C   0  0  1  0  0  0  0  0  0  0  0  0
   23.4966   -1.0206   -9.7531 O   0  0  0  0  0  0  0  0  0  0  0  0
   24.7664   -0.5575  -10.0170 C   0  0  0  0  0  0  0  0  0  0  0  0
   25.2031   -0.3313  -11.3145 C   0  0  0  0  0  0  0  0  0  0  0  0
   26.4589    0.1285  -11.6266 C   0  0  0  0  0  0  0  0  0  0  0  0
   26.8664    0.3428  -12.8939 F   0  0  0  0  0  0  0  0  0  0  0  0
   27.3555    0.3883  -10.6236 C   0  0  0  0  0  0  0  0  0  0  0  0
   26.9762    0.1816   -9.3143 C   0  0  0  0  0  0  0  0  0  0  0  0
   27.9120    0.4488   -8.2647 C   0  0  0  0  0  0  0  0  0  0  0  0
   28.6884    0.6563   -7.4181 N   0  0  0  0  0  0  0  0  0  0  0  0
   25.6875   -0.2882   -9.0278 C   0  0  0  0  0  0  0  0  0  0  0  0
   21.6013   -1.3111  -11.2363 C   0  0  0  0  0  0  0  0  0  0  0  0
  1  2  1  6
  2  3  1  1
  4  3  1  6
  4  5  1  0
  5  6  1  6
  6  7  1  1
  7  8  1  1
  8  9  1  0
  9 10  2  0
 10 11  1  0
 11 12  1  0
 11 13  2  0
 13 14  1  0
 14 15  1  0
 15 16  3  0
 14 17  2  0
 18  7  1  1
 18  4  1  0
 17  9  1  0
M  END
$$$$
