_rank11
     RDKit          3D

 18 19  0  0  0  0  0  0  0  0999 V2000
   18.8068   -2.9864   -9.8271 C   0  0  0  0  0  0  0  0  0  0  0  0
   18.6531   -1.7115  -10.5926 C   0  0  0  0  0  0  0  0  0  0  0  0
   19.4102   -1.5996  -11.7827 N   0  0  0  0  0  0  0  0  0  0  0  0
   20.7388   -1.1589  -11.7146 C   0  0  1  0  0  0  0  0  0  0  0  0
   20.8995    0.3088  -11.3770 C   0  0  0  0  0  0  0  0  0  0  0  0
   22.4131    0.4268  -11.3546 C   0  0  0  0  0  0  0  0  0  0  0  0
   22.9340   -0.9622  -10.9482 C   0  0  1  0  0  0  0  0  0  0  0  0
   23.7144   -0.9093   -9.8141 O   0  0  0  0  0  0  0  0  0  0  0  0
   25.0847   -0.7990   -9.7323 C   0  0  0  0  0  0  0  0  0  0  0  0
   25.9126   -1.2465  -10.7521 C   0  0  0  0  0  0  0  0  0  0  0  0
   27.2825   -1.1589  -10.7153 C   0  0  0  0  0  0  0  0  0  0  0  0
   28.0717   -1.5991  -11.7159 F   0  0  0  0  0  0  0  0  0  0  0  0
   27.8983   -0.6037   -9.6244 C   0  0  0  0  0  0  0  0  0  0  0  0
   27.1253   -0.1418   -8.5803 C   0  0  0  0  0  0  0  0  0  0  0  0
   27.7661    0.4354   -7.4379 C   0  0  0  0  0  0  0  0  0  0  0  0
   28.2794    0.8936   -6.4950 N   0  0  0  0  0  0  0  0  0  0  0  0
   25.7295   -0.2451   -8.6475 C   0  0  0  0  0  0  0  0  0  0  0  0
   21.6548   -1.7963  -10.7349 C   0  0  0  0  0  0  0  0  0  0  0  0
  1  2  1  6
  2  3  1  1
  4  3  1  1
  4  5  1  0
  5  6  1  6
  6  7  1  1
  7  8  1  1
  8  9  1  0
  9 10  2  0
 10 11  1  0
 11 12  1  0
 11 13  2  0
 13 14  1  0
 14 15  1  0
 15 16  3  0
 14 17  2  0
 18  7  1  1
 18  4  1  0
 17  9  1  0
M  END
$$$$
