_rank6
     RDKit          3D

 18 19  0  0  0  0  0  0  0  0999 V2000
   18.5120   -2.5808  -12.4909 C   0  0  0  0  0  0  0  0  0  0  0  0
   18.5252   -1.2408  -11.8279 C   0  0  0  0  0  0  0  0  0  0  0  0
   19.1098   -1.1840  -10.5406 N   0  0  0  0  0  0  0  0  0  0  0  0
   20.4060   -0.6714  -10.3951 C   0  0  1  0  0  0  0  0  0  0  0  0
   21.1642   -1.2053   -9.1976 C   0  0  0  0  0  0  0  0  0  0  0  0
   22.4920   -0.4880   -9.3645 C   0  0  0  0  0  0  0  0  0  0  0  0
   22.6499   -0.2484  -10.8756 C   0  0  1  0  0  0  0  0  0  0  0  0
   23.8058   -0.8122  -11.3695 O   0  0  0  0  0  0  0  0  0  0  0  0
   25.1057   -0.4184  -11.1417 C   0  0  0  0  0  0  0  0  0  0  0  0
   25.9096    0.0636  -12.1648 C   0  0  0  0  0  0  0  0  0  0  0  0
   27.2101    0.4669  -11.9864 C   0  0  0  0  0  0  0  0  0  0  0  0
   27.9770    0.9329  -12.9927 F   0  0  0  0  0  0  0  0  0  0  0  0
   27.7761    0.4024  -10.7403 C   0  0  0  0  0  0  0  0  0  0  0  0
   27.0240   -0.0688   -9.6852 C   0  0  0  0  0  0  0  0  0  0  0  0
   27.6138   -0.1406   -8.3830 C   0  0  0  0  0  0  0  0  0  0  0  0
   28.1091   -0.1877   -7.3271 N   0  0  0  0  0  0  0  0  0  0  0  0
   25.6993   -0.4727   -9.8991 C   0  0  0  0  0  0  0  0  0  0  0  0
   21.3857   -0.8812  -11.4912 C   0  0  0  0  0  0  0  0  0  0  0  0
  1  2  1  6
  2  3  1  1
  4  3  1  6
  4  5  1  0
  5  6  1  6
  6  7  1  1
  7  8  1  6
  8  9  1  0
  9 10  2  0
 10 11  1  0
 11 12  1  0
 11 13  2  0
 13 14  1  0
 14 15  1  0
 15 16  3  0
 14 17  2  0
 18  7  1  1
 18  4  1  0
 17  9  1  0
M  END
$$$$
