_rank4
     RDKit          3D

 18 19  0  0  0  0  0  0  0  0999 V2000
   16.7914   -1.1973  -10.8771 C   0  0  0  0  0  0  0  0  0  0  0  0
   18.2000   -1.1442  -10.3790 C   0  0  0  0  0  0  0  0  0  0  0  0
   19.2107   -1.4409  -11.3238 N   0  0  0  0  0  0  0  0  0  0  0  0
   20.4752   -0.8524  -11.1871 C   0  0  1  0  0  0  0  0  0  0  0  0
   20.8593   -0.5078   -9.7631 C   0  0  0  0  0  0  0  0  0  0  0  0
   22.2513    0.0593   -9.9782 C   0  0  0  0  0  0  0  0  0  0  0  0
   22.7987   -0.6426  -11.2325 C   0  0  1  0  0  0  0  0  0  0  0  0
   23.9794   -1.3057  -10.9790 O   0  0  0  0  0  0  0  0  0  0  0  0
   25.2321   -0.7650  -10.7920 C   0  0  0  0  0  0  0  0  0  0  0  0
   26.0323   -0.3956  -11.8638 C   0  0  0  0  0  0  0  0  0  0  0  0
   27.2869    0.1459  -11.7270 C   0  0  0  0  0  0  0  0  0  0  0  0
   28.0509    0.4992  -12.7803 F   0  0  0  0  0  0  0  0  0  0  0  0
   27.8074    0.3458  -10.4754 C   0  0  0  0  0  0  0  0  0  0  0  0
   27.0566   -0.0030   -9.3729 C   0  0  0  0  0  0  0  0  0  0  0  0
   27.5993    0.2014   -8.0642 C   0  0  0  0  0  0  0  0  0  0  0  0
   28.0537    0.3815   -7.0042 N   0  0  0  0  0  0  0  0  0  0  0  0
   25.7795   -0.5534   -9.5450 C   0  0  0  0  0  0  0  0  0  0  0  0
   21.6689   -1.6060  -11.6480 C   0  0  0  0  0  0  0  0  0  0  0  0
  1  2  1  6
  2  3  1  1
  4  3  1  1
  4  5  1  0
  5  6  1  6
  6  7  1  1
  7  8  1  1
  8  9  1  0
  9 10  2  0
 10 11  1  0
 11 12  1  0
 11 13  2  0
 13 14  1  0
 14 15  1  0
 15 16  3  0
 14 17  2  0
 18  7  1  1
 18  4  1  0
 17  9  1  0
M  END
$$$$
