_rank8
     RDKit          3D

 18 19  0  0  0  0  0  0  0  0999 V2000
   16.8225   -0.2496  -10.8945 C   0  0  0  0  0  0  0  0  0  0  0  0
   18.2247   -0.0298  -10.4246 C   0  0  0  0  0  0  0  0  0  0  0  0
   19.1990   -0.9308  -10.9157 N   0  0  0  0  0  0  0  0  0  0  0  0
   20.5302   -0.8005  -10.4974 C   0  0  1  0  0  0  0  0  0  0  0  0
   21.0948   -2.0218   -9.8020 C   0  0  0  0  0  0  0  0  0  0  0  0
   22.5135   -1.5563   -9.5266 C   0  0  0  0  0  0  0  0  0  0  0  0
   22.8456   -0.5483  -10.6399 C   0  0  1  0  0  0  0  0  0  0  0  0
   23.9617   -0.9202  -11.3568 O   0  0  0  0  0  0  0  0  0  0  0  0
   25.2747   -0.5800  -11.1183 C   0  0  0  0  0  0  0  0  0  0  0  0
   26.0983   -0.1054  -12.1292 C   0  0  0  0  0  0  0  0  0  0  0  0
   27.4124    0.2453  -11.9398 C   0  0  0  0  0  0  0  0  0  0  0  0
   28.1984    0.7049  -12.9342 F   0  0  0  0  0  0  0  0  0  0  0  0
   27.9728    0.1319  -10.6946 C   0  0  0  0  0  0  0  0  0  0  0  0
   27.2012   -0.3345   -9.6515 C   0  0  0  0  0  0  0  0  0  0  0  0
   27.7850   -0.4573   -8.3504 C   0  0  0  0  0  0  0  0  0  0  0  0
   28.2746   -0.5691   -7.2966 N   0  0  0  0  0  0  0  0  0  0  0  0
   25.8630   -0.6842   -9.8763 C   0  0  0  0  0  0  0  0  0  0  0  0
   21.5758   -0.5213  -11.5142 C   0  0  0  0  0  0  0  0  0  0  0  0
  1  2  1  6
  2  3  1  1
  4  3  1  6
  4  5  1  0
  5  6  1  6
  6  7  1  1
  7  8  1  6
  8  9  1  0
  9 10  2  0
 10 11  1  0
 11 12  1  0
 11 13  2  0
 13 14  1  0
 14 15  1  0
 15 16  3  0
 14 17  2  0
 18  7  1  1
 18  4  1  0
 17  9  1  0
M  END
$$$$
