_rank13
     RDKit          3D

 18 19  0  0  0  0  0  0  0  0999 V2000
   19.2387   -3.9022  -11.4670 C   0  0  0  0  0  0  0  0  0  0  0  0
   19.4653   -2.5662  -12.0985 C   0  0  0  0  0  0  0  0  0  0  0  0
   19.1269   -1.4372  -11.3156 N   0  0  0  0  0  0  0  0  0  0  0  0
   20.1261   -0.5207  -10.9610 C   0  0  1  0  0  0  0  0  0  0  0  0
   19.8505    0.2506   -9.6870 C   0  0  0  0  0  0  0  0  0  0  0  0
   21.1091    1.0947   -9.5930 C   0  0  0  0  0  0  0  0  0  0  0  0
   22.2124    0.2776  -10.2865 C   0  0  1  0  0  0  0  0  0  0  0  0
   23.2777    0.0327   -9.4479 O   0  0  0  0  0  0  0  0  0  0  0  0
   24.6148   -0.0289   -9.7718 C   0  0  0  0  0  0  0  0  0  0  0  0
   25.0390   -0.1843  -11.0838 C   0  0  0  0  0  0  0  0  0  0  0  0
   26.3595   -0.2517  -11.4548 C   0  0  0  0  0  0  0  0  0  0  0  0
   26.7537   -0.4029  -12.7352 F   0  0  0  0  0  0  0  0  0  0  0  0
   27.3383   -0.1641  -10.5000 C   0  0  0  0  0  0  0  0  0  0  0  0
   26.9752   -0.0090   -9.1790 C   0  0  0  0  0  0  0  0  0  0  0  0
   27.9956    0.0792   -8.1791 C   0  0  0  0  0  0  0  0  0  0  0  0
   28.8388    0.1608   -7.3761 N   0  0  0  0  0  0  0  0  0  0  0  0
   25.6192    0.0566   -8.8319 C   0  0  0  0  0  0  0  0  0  0  0  0
   21.5031   -1.0213  -10.7193 C   0  0  0  0  0  0  0  0  0  0  0  0
  1  2  1  6
  2  3  1  1
  4  3  1  1
  4  5  1  0
  5  6  1  6
  6  7  1  1
  7  8  1  1
  8  9  1  0
  9 10  2  0
 10 11  1  0
 11 12  1  0
 11 13  2  0
 13 14  1  0
 14 15  1  0
 15 16  3  0
 14 17  2  0
 18  7  1  1
 18  4  1  0
 17  9  1  0
M  END
$$$$
