_rank19
     RDKit          3D

 18 19  0  0  0  0  0  0  0  0999 V2000
   22.0592    4.1103  -10.1954 C   0  0  0  0  0  0  0  0  0  0  0  0
   23.3582    4.6440  -10.7081 C   0  0  0  0  0  0  0  0  0  0  0  0
   23.6476    4.3882  -12.0693 N   0  0  0  0  0  0  0  0  0  0  0  0
   24.1616    3.1385  -12.4408 C   0  0  1  0  0  0  0  0  0  0  0  0
   25.4594    3.1969  -13.2195 C   0  0  0  0  0  0  0  0  0  0  0  0
   25.7331    1.7168  -13.4188 C   0  0  0  0  0  0  0  0  0  0  0  0
   25.0848    1.0071  -12.2180 C   0  0  1  0  0  0  0  0  0  0  0  0
   25.9974    0.2605  -11.5055 O   0  0  0  0  0  0  0  0  0  0  0  0
   25.7471   -0.7578  -10.6127 C   0  0  0  0  0  0  0  0  0  0  0  0
   24.5996   -1.5334  -10.6970 C   0  0  0  0  0  0  0  0  0  0  0  0
   24.3067   -2.5575   -9.8304 C   0  0  0  0  0  0  0  0  0  0  0  0
   23.1862   -3.3012   -9.9274 F   0  0  0  0  0  0  0  0  0  0  0  0
   25.1756   -2.8563   -8.8139 C   0  0  0  0  0  0  0  0  0  0  0  0
   26.3326   -2.1182   -8.6815 C   0  0  0  0  0  0  0  0  0  0  0  0
   27.2403   -2.4258   -7.6184 C   0  0  0  0  0  0  0  0  0  0  0  0
   27.9954   -2.6727   -6.7631 N   0  0  0  0  0  0  0  0  0  0  0  0
   26.6035   -1.0793   -9.5818 C   0  0  0  0  0  0  0  0  0  0  0  0
   24.4911    2.1555  -11.3777 C   0  0  0  0  0  0  0  0  0  0  0  0
  1  2  1  6
  2  3  1  1
  4  3  1  1
  4  5  1  0
  5  6  1  6
  6  7  1  1
  7  8  1  1
  8  9  1  0
  9 10  2  0
 10 11  1  0
 11 12  1  0
 11 13  2  0
 13 14  1  0
 14 15  1  0
 15 16  3  0
 14 17  2  0
 18  7  1  1
 18  4  1  0
 17  9  1  0
M  END
$$$$
