_rank2
     RDKit          3D

 18 19  0  0  0  0  0  0  0  0999 V2000
   28.7144   -0.4296   -7.7179 C   0  0  0  0  0  0  0  0  0  0  0  0
   27.9514    0.3482   -8.7416 C   0  0  0  0  0  0  0  0  0  0  0  0
   27.3487   -0.4025   -9.7785 N   0  0  0  0  0  0  0  0  0  0  0  0
   26.2115    0.1029  -10.4230 C   0  0  1  0  0  0  0  0  0  0  0  0
   26.3223    0.1758  -11.9318 C   0  0  0  0  0  0  0  0  0  0  0  0
   24.9491    0.7173  -12.2874 C   0  0  0  0  0  0  0  0  0  0  0  0
   24.0062    0.2269  -11.1755 C   0  0  1  0  0  0  0  0  0  0  0  0
   22.9598   -0.5160  -11.6766 O   0  0  0  0  0  0  0  0  0  0  0  0
   21.6736   -0.6031  -11.1921 C   0  0  0  0  0  0  0  0  0  0  0  0
   20.9321   -1.7708  -11.3031 C   0  0  0  0  0  0  0  0  0  0  0  0
   19.6475   -1.9049  -10.8366 C   0  0  0  0  0  0  0  0  0  0  0  0
   18.9416   -3.0477  -10.9531 F   0  0  0  0  0  0  0  0  0  0  0  0
   19.0342   -0.8450  -10.2220 C   0  0  0  0  0  0  0  0  0  0  0  0
   19.7234    0.3411  -10.0837 C   0  0  0  0  0  0  0  0  0  0  0  0
   19.0839    1.4512   -9.4453 C   0  0  0  0  0  0  0  0  0  0  0  0
   18.5525    2.3598   -8.9408 N   0  0  0  0  0  0  0  0  0  0  0  0
   21.0333    0.4469  -10.5700 C   0  0  0  0  0  0  0  0  0  0  0  0
   24.9169   -0.6034  -10.2488 C   0  0  0  0  0  0  0  0  0  0  0  0
  1  2  1  6
  2  3  1  1
  4  3  1  6
  4  5  1  0
  5  6  1  6
  6  7  1  1
  7  8  1  6
  8  9  1  0
  9 10  2  0
 10 11  1  0
 11 12  1  0
 11 13  2  0
 13 14  1  0
 14 15  1  0
 15 16  3  0
 14 17  2  0
 18  7  1  1
 18  4  1  0
 17  9  1  0
M  END
$$$$
