_rank12
     RDKit          3D

 18 19  0  0  0  0  0  0  0  0999 V2000
   18.4671   -4.2873  -11.5352 C   0  0  0  0  0  0  0  0  0  0  0  0
   19.3993   -3.2076  -11.9829 C   0  0  0  0  0  0  0  0  0  0  0  0
   19.1928   -1.9269  -11.4179 N   0  0  0  0  0  0  0  0  0  0  0  0
   20.2839   -1.0629  -11.2534 C   0  0  1  0  0  0  0  0  0  0  0  0
   20.0335    0.0963  -10.3113 C   0  0  0  0  0  0  0  0  0  0  0  0
   21.3883    0.7810  -10.3437 C   0  0  0  0  0  0  0  0  0  0  0  0
   22.4110   -0.3307  -10.6335 C   0  0  1  0  0  0  0  0  0  0  0  0
   23.3729   -0.4160   -9.6509 O   0  0  0  0  0  0  0  0  0  0  0  0
   24.7182   -0.1405   -9.7553 C   0  0  0  0  0  0  0  0  0  0  0  0
   25.2067    0.7527  -10.6981 C   0  0  0  0  0  0  0  0  0  0  0  0
   26.5380    1.0583  -10.8403 C   0  0  0  0  0  0  0  0  0  0  0  0
   26.9951    1.9292  -11.7624 F   0  0  0  0  0  0  0  0  0  0  0  0
   27.4621    0.4650  -10.0208 C   0  0  0  0  0  0  0  0  0  0  0  0
   27.0338   -0.4316   -9.0650 C   0  0  0  0  0  0  0  0  0  0  0  0
   27.9973   -1.0556   -8.2100 C   0  0  0  0  0  0  0  0  0  0  0  0
   28.7701   -1.5647   -7.4985 N   0  0  0  0  0  0  0  0  0  0  0  0
   25.6684   -0.7227   -8.9444 C   0  0  0  0  0  0  0  0  0  0  0  0
   21.5583   -1.6121  -10.7247 C   0  0  0  0  0  0  0  0  0  0  0  0
  1  2  1  6
  2  3  1  1
  4  3  1  1
  4  5  1  0
  5  6  1  6
  6  7  1  1
  7  8  1  1
  8  9  1  0
  9 10  2  0
 10 11  1  0
 11 12  1  0
 11 13  2  0
 13 14  1  0
 14 15  1  0
 15 16  3  0
 14 17  2  0
 18  7  1  1
 18  4  1  0
 17  9  1  0
M  END
$$$$
