_rank3
     RDKit          3D

 18 19  0  0  0  0  0  0  0  0999 V2000
   28.7142   -0.2160   -8.5273 C   0  0  0  0  0  0  0  0  0  0  0  0
   27.4798    0.5385   -8.9045 C   0  0  0  0  0  0  0  0  0  0  0  0
   27.2833    0.7683  -10.2867 N   0  0  0  0  0  0  0  0  0  0  0  0
   26.0047    0.6050  -10.8368 C   0  0  1  0  0  0  0  0  0  0  0  0
   25.9345   -0.3768  -11.9880 C   0  0  0  0  0  0  0  0  0  0  0  0
   24.4501   -0.3315  -12.3043 C   0  0  0  0  0  0  0  0  0  0  0  0
   23.7513    0.0159  -10.9790 C   0  0  1  0  0  0  0  0  0  0  0  0
   22.8278   -0.9400  -10.6164 O   0  0  0  0  0  0  0  0  0  0  0  0
   21.4560   -0.8230  -10.5807 C   0  0  0  0  0  0  0  0  0  0  0  0
   20.8320    0.2168   -9.9062 C   0  0  0  0  0  0  0  0  0  0  0  0
   19.4694    0.3744   -9.8422 C   0  0  0  0  0  0  0  0  0  0  0  0
   18.8799    1.3914   -9.1818 F   0  0  0  0  0  0  0  0  0  0  0  0
   18.6513   -0.5287  -10.4687 C   0  0  0  0  0  0  0  0  0  0  0  0
   19.2163   -1.5829  -11.1545 C   0  0  0  0  0  0  0  0  0  0  0  0
   18.3640   -2.5298  -11.8070 C   0  0  0  0  0  0  0  0  0  0  0  0
   17.6797   -3.3006  -12.3549 N   0  0  0  0  0  0  0  0  0  0  0  0
   20.6104   -1.7165  -11.2019 C   0  0  0  0  0  0  0  0  0  0  0  0
   24.9053    0.1240   -9.9620 C   0  0  0  0  0  0  0  0  0  0  0  0
  1  2  1  6
  2  3  1  1
  4  3  1  1
  4  5  1  0
  5  6  1  6
  6  7  1  1
  7  8  1  1
  8  9  1  0
  9 10  2  0
 10 11  1  0
 11 12  1  0
 11 13  2  0
 13 14  1  0
 14 15  1  0
 15 16  3  0
 14 17  2  0
 18  7  1  1
 18  4  1  0
 17  9  1  0
M  END
$$$$
