_rank9
     RDKit          3D

 22 23  0  0  0  0  0  0  0  0999 V2000
   17.5679   -4.1893  -10.5115 N   0  0  0  0  0  0  0  0  0  0  0  0
   18.1715   -3.3294  -10.4827 C   0  0  0  0  0  0  0  0  0  0  0  0
   19.0331   -2.1053  -10.4675 C   0  0  0  0  0  0  0  0  0  0  0  0
   18.4889   -0.9447   -9.9489 C   0  0  0  0  0  0  0  0  0  0  0  0
   19.1535    0.2580   -9.9784 C   0  0  0  0  0  0  0  0  0  0  0  0
   18.6042    1.3860   -9.4851 F   0  0  0  0  0  0  0  0  0  0  0  0
   20.4260    0.2655  -10.5621 C   0  0  0  0  0  0  0  0  0  0  0  0
   20.9711   -0.8830  -11.0766 C   0  0  0  0  0  0  0  0  0  0  0  0
   22.2375   -0.8017  -11.7361 N   0  0  0  0  0  0  0  0  0  0  0  0
   23.3623   -0.3841  -10.9312 C   0  0  0  0  0  0  0  0  0  0  0  0
   23.1374    0.0454   -9.7615 O   0  0  0  0  0  0  0  0  0  0  0  0
   24.6668   -0.4414  -11.4029 N   0  0  0  0  0  0  0  0  0  0  0  0
   25.7382    0.4358  -10.9699 C   0  0  2  0  0  0  0  0  0  0  0  0
   26.5106    0.8818  -12.1954 C   0  0  0  0  0  0  0  0  0  0  0  0
   27.7099    0.2062  -12.3273 O   0  0  0  0  0  0  0  0  0  0  0  0
   26.6201   -0.2556   -9.9998 C   0  0  0  0  0  0  0  0  0  0  0  0
   27.1412   -1.5082  -10.1427 C   0  0  0  0  0  0  0  0  0  0  0  0
   27.9636   -2.1599   -9.2688 C   0  0  0  0  0  0  0  0  0  0  0  0
   28.3074   -1.4727   -8.1026 C   0  0  0  0  0  0  0  0  0  0  0  0
   27.8221   -0.2166   -7.8937 C   0  0  0  0  0  0  0  0  0  0  0  0
   26.9820    0.4137   -8.8177 C   0  0  0  0  0  0  0  0  0  0  0  0
   20.2644   -2.0975  -11.0290 C   0  0  0  0  0  0  0  0  0  0  0  0
  1  2  3  0
  2  3  1  0
  3  4  2  0
  4  5  1  0
  5  6  1  0
  5  7  2  0
  7  8  1  0
  8  9  1  0
  9 10  1  0
 10 11  2  0
 10 12  1  0
 13 12  1  6
 13 14  1  0
 14 15  1  1
 13 16  1  0
 16 17  2  0
 17 18  1  0
 18 19  2  0
 19 20  1  0
 20 21  2  0
  8 22  2  0
 22  3  1  0
 21 16  1  0
M  END
$$$$
