_rank12
     RDKit          3D

 22 23  0  0  0  0  0  0  0  0999 V2000
   19.6679   -2.8343   -7.5418 N   0  0  0  0  0  0  0  0  0  0  0  0
   19.8866   -2.2890   -8.4133 C   0  0  0  0  0  0  0  0  0  0  0  0
   20.2213   -1.5241   -9.6558 C   0  0  0  0  0  0  0  0  0  0  0  0
   19.1989   -0.8303  -10.2766 C   0  0  0  0  0  0  0  0  0  0  0  0
   19.3715   -0.1793  -11.4747 C   0  0  0  0  0  0  0  0  0  0  0  0
   18.3613    0.4786  -12.0782 F   0  0  0  0  0  0  0  0  0  0  0  0
   20.6443   -0.2438  -12.0541 C   0  0  0  0  0  0  0  0  0  0  0  0
   21.6624   -0.9292  -11.4419 C   0  0  0  0  0  0  0  0  0  0  0  0
   22.9183   -1.0335  -12.1180 N   0  0  0  0  0  0  0  0  0  0  0  0
   24.0133   -0.2631  -11.5749 C   0  0  0  0  0  0  0  0  0  0  0  0
   23.7949    0.4551  -10.5553 O   0  0  0  0  0  0  0  0  0  0  0  0
   25.2826   -0.2906  -12.1366 N   0  0  0  0  0  0  0  0  0  0  0  0
   26.4279    0.4342  -11.6189 C   0  0  2  0  0  0  0  0  0  0  0  0
   27.5275    0.3907  -12.6612 C   0  0  0  0  0  0  0  0  0  0  0  0
   28.3157    1.5265  -12.6319 O   0  0  0  0  0  0  0  0  0  0  0  0
   26.8801   -0.1515  -10.3345 C   0  0  0  0  0  0  0  0  0  0  0  0
   27.2397    0.5461   -9.2188 C   0  0  0  0  0  0  0  0  0  0  0  0
   27.6480    0.0285   -8.0229 C   0  0  0  0  0  0  0  0  0  0  0  0
   27.7060   -1.3639   -7.9313 C   0  0  0  0  0  0  0  0  0  0  0  0
   27.3611   -2.1242   -9.0083 C   0  0  0  0  0  0  0  0  0  0  0  0
   26.9472   -1.5506  -10.2151 C   0  0  0  0  0  0  0  0  0  0  0  0
   21.4522   -1.5834  -10.2153 C   0  0  0  0  0  0  0  0  0  0  0  0
  1  2  3  0
  2  3  1  0
  3  4  2  0
  4  5  1  0
  5  6  1  0
  5  7  2  0
  7  8  1  0
  8  9  1  0
  9 10  1  0
 10 11  2  0
 10 12  1  0
 13 12  1  6
 13 14  1  0
 14 15  1  1
 13 16  1  0
 16 17  2  0
 17 18  1  0
 18 19  2  0
 19 20  1  0
 20 21  2  0
  8 22  2  0
 22  3  1  0
 21 16  1  0
M  END
$$$$
