_rank7
     RDKit          3D

 22 23  0  0  0  0  0  0  0  0999 V2000
   19.2676   -3.7709  -10.9501 N   0  0  0  0  0  0  0  0  0  0  0  0
   19.6879   -2.8360  -10.7178 C   0  0  0  0  0  0  0  0  0  0  0  0
   20.3095   -1.5128  -10.3958 C   0  0  0  0  0  0  0  0  0  0  0  0
   19.4767   -0.5070   -9.9410 C   0  0  0  0  0  0  0  0  0  0  0  0
   19.9235    0.7726   -9.7126 C   0  0  0  0  0  0  0  0  0  0  0  0
   19.0970    1.7486   -9.2860 F   0  0  0  0  0  0  0  0  0  0  0  0
   21.2780    1.0253   -9.9603 C   0  0  0  0  0  0  0  0  0  0  0  0
   22.1087    0.0310  -10.4099 C   0  0  0  0  0  0  0  0  0  0  0  0
   23.4630    0.3641  -10.7266 N   0  0  0  0  0  0  0  0  0  0  0  0
   24.1088   -0.4393  -11.7389 C   0  0  0  0  0  0  0  0  0  0  0  0
   23.4836   -1.4380  -12.2025 O   0  0  0  0  0  0  0  0  0  0  0  0
   25.3818   -0.1469  -12.2097 N   0  0  0  0  0  0  0  0  0  0  0  0
   26.3689    0.6313  -11.4851 C   0  0  2  0  0  0  0  0  0  0  0  0
   27.5991    0.7694  -12.3597 C   0  0  0  0  0  0  0  0  0  0  0  0
   27.2945    1.2845  -13.6063 O   0  0  0  0  0  0  0  0  0  0  0  0
   26.6973   -0.0147  -10.1921 C   0  0  0  0  0  0  0  0  0  0  0  0
   26.7036   -1.3564   -9.9460 C   0  0  0  0  0  0  0  0  0  0  0  0
   27.0133   -1.9736   -8.7678 C   0  0  0  0  0  0  0  0  0  0  0  0
   27.3589   -1.1437   -7.6991 C   0  0  0  0  0  0  0  0  0  0  0  0
   27.3731    0.2077   -7.8735 C   0  0  0  0  0  0  0  0  0  0  0  0
   27.0491    0.7975   -9.0999 C   0  0  0  0  0  0  0  0  0  0  0  0
   21.6194   -1.2681  -10.6322 C   0  0  0  0  0  0  0  0  0  0  0  0
  1  2  3  0
  2  3  1  0
  3  4  2  0
  4  5  1  0
  5  6  1  0
  5  7  2  0
  7  8  1  0
  8  9  1  0
  9 10  1  0
 10 11  2  0
 10 12  1  0
 13 12  1  6
 13 14  1  0
 14 15  1  1
 13 16  1  0
 16 17  2  0
 17 18  1  0
 18 19  2  0
 19 20  1  0
 20 21  2  0
  8 22  2  0
 22  3  1  0
 21 16  1  0
M  END
$$$$
