_rank10
     RDKit          3D

 22 23  0  0  0  0  0  0  0  0999 V2000
   17.4971   -2.5233   -8.5950 N   0  0  0  0  0  0  0  0  0  0  0  0
   18.2481   -2.0988   -9.1954 C   0  0  0  0  0  0  0  0  0  0  0  0
   19.3019   -1.4957  -10.0710 C   0  0  0  0  0  0  0  0  0  0  0  0
   18.9364   -0.4302  -10.8730 C   0  0  0  0  0  0  0  0  0  0  0  0
   19.7949    0.1326  -11.7870 C   0  0  0  0  0  0  0  0  0  0  0  0
   19.4200    1.1599  -12.5755 F   0  0  0  0  0  0  0  0  0  0  0  0
   21.0775   -0.4211  -11.8773 C   0  0  0  0  0  0  0  0  0  0  0  0
   21.4457   -1.4769  -11.0831 C   0  0  0  0  0  0  0  0  0  0  0  0
   22.7386   -2.0574  -11.2754 N   0  0  0  0  0  0  0  0  0  0  0  0
   23.8609   -1.1479  -11.2995 C   0  0  0  0  0  0  0  0  0  0  0  0
   23.6305    0.0933  -11.2010 O   0  0  0  0  0  0  0  0  0  0  0  0
   25.1689   -1.5957  -11.4266 N   0  0  0  0  0  0  0  0  0  0  0  0
   26.3429   -0.7505  -11.3157 C   0  0  2  0  0  0  0  0  0  0  0  0
   27.4410   -1.3493  -12.1719 C   0  0  0  0  0  0  0  0  0  0  0  0
   27.1733   -1.2227  -13.5227 O   0  0  0  0  0  0  0  0  0  0  0  0
   26.7685   -0.6302   -9.9010 C   0  0  0  0  0  0  0  0  0  0  0  0
   27.0146   -1.6657   -9.0479 C   0  0  0  0  0  0  0  0  0  0  0  0
   27.4178   -1.5789   -7.7460 C   0  0  0  0  0  0  0  0  0  0  0  0
   27.5959   -0.2930   -7.2310 C   0  0  0  0  0  0  0  0  0  0  0  0
   27.3674    0.7887   -8.0275 C   0  0  0  0  0  0  0  0  0  0  0  0
   26.9557    0.6527   -9.3574 C   0  0  0  0  0  0  0  0  0  0  0  0
   20.5430   -2.0284  -10.1570 C   0  0  0  0  0  0  0  0  0  0  0  0
  1  2  3  0
  2  3  1  0
  3  4  2  0
  4  5  1  0
  5  6  1  0
  5  7  2  0
  7  8  1  0
  8  9  1  0
  9 10  1  0
 10 11  2  0
 10 12  1  0
 13 12  1  1
 13 14  1  0
 14 15  1  1
 13 16  1  0
 16 17  2  0
 17 18  1  0
 18 19  2  0
 19 20  1  0
 20 21  2  0
  8 22  2  0
 22  3  1  0
 21 16  1  0
M  END
$$$$
