_rank3
     RDKit          3D

 22 23  0  0  0  0  0  0  0  0999 V2000
   16.9590   -2.7883  -12.2774 N   0  0  0  0  0  0  0  0  0  0  0  0
   17.7718   -2.3188  -11.8046 C   0  0  0  0  0  0  0  0  0  0  0  0
   18.9372   -1.6407  -11.1541 C   0  0  0  0  0  0  0  0  0  0  0  0
   18.6991   -0.4490  -10.4945 C   0  0  0  0  0  0  0  0  0  0  0  0
   19.7101    0.3069   -9.9506 C   0  0  0  0  0  0  0  0  0  0  0  0
   19.4660    1.4761   -9.3254 F   0  0  0  0  0  0  0  0  0  0  0  0
   21.0140   -0.1835  -10.0897 C   0  0  0  0  0  0  0  0  0  0  0  0
   21.2555   -1.3657  -10.7416 C   0  0  0  0  0  0  0  0  0  0  0  0
   22.6124   -1.7775  -10.9282 N   0  0  0  0  0  0  0  0  0  0  0  0
   23.5916   -0.7283  -11.0944 C   0  0  0  0  0  0  0  0  0  0  0  0
   23.1881    0.4716  -11.1189 O   0  0  0  0  0  0  0  0  0  0  0  0
   24.9467   -1.0001  -11.2264 N   0  0  0  0  0  0  0  0  0  0  0  0
   25.9988   -0.0053  -11.1337 C   0  0  2  0  0  0  0  0  0  0  0  0
   26.9008   -0.1550  -12.3425 C   0  0  0  0  0  0  0  0  0  0  0  0
   26.2013   -0.0385  -13.5297 O   0  0  0  0  0  0  0  0  0  0  0  0
   26.7592   -0.1649   -9.8715 C   0  0  0  0  0  0  0  0  0  0  0  0
   27.5142    0.7955   -9.2645 C   0  0  0  0  0  0  0  0  0  0  0  0
   28.2131    0.6746   -8.0975 C   0  0  0  0  0  0  0  0  0  0  0  0
   28.1508   -0.5647   -7.4567 C   0  0  0  0  0  0  0  0  0  0  0  0
   27.4151   -1.5709   -8.0073 C   0  0  0  0  0  0  0  0  0  0  0  0
   26.7134   -1.4022   -9.2056 C   0  0  0  0  0  0  0  0  0  0  0  0
   20.1978   -2.1152  -11.2856 C   0  0  0  0  0  0  0  0  0  0  0  0
  1  2  3  0
  2  3  1  0
  3  4  2  0
  4  5  1  0
  5  6  1  0
  5  7  2  0
  7  8  1  0
  8  9  1  0
  9 10  1  0
 10 11  2  0
 10 12  1  0
 13 12  1  6
 13 14  1  0
 14 15  1  1
 13 16  1  0
 16 17  2  0
 17 18  1  0
 18 19  2  0
 19 20  1  0
 20 21  2  0
  8 22  2  0
 22  3  1  0
 21 16  1  0
M  END
$$$$
