_rank17
     RDKit          3D

 22 23  0  0  0  0  0  0  0  0999 V2000
   17.3480   -1.1292   -9.5601 N   0  0  0  0  0  0  0  0  0  0  0  0
   18.2474   -1.1416  -10.1038 C   0  0  0  0  0  0  0  0  0  0  0  0
   19.5377   -1.1402  -10.8629 C   0  0  0  0  0  0  0  0  0  0  0  0
   19.4844   -0.8669  -12.2173 C   0  0  0  0  0  0  0  0  0  0  0  0
   20.5923   -0.9386  -13.0276 C   0  0  0  0  0  0  0  0  0  0  0  0
   20.5231   -0.6868  -14.3503 F   0  0  0  0  0  0  0  0  0  0  0  0
   21.7997   -1.3037  -12.4205 C   0  0  0  0  0  0  0  0  0  0  0  0
   21.8585   -1.5743  -11.0772 C   0  0  0  0  0  0  0  0  0  0  0  0
   23.0989   -2.0239  -10.5251 N   0  0  0  0  0  0  0  0  0  0  0  0
   24.2786   -1.2697  -10.8812 C   0  0  0  0  0  0  0  0  0  0  0  0
   24.2361   -0.5408  -11.9156 O   0  0  0  0  0  0  0  0  0  0  0  0
   25.4427   -1.3241  -10.1267 N   0  0  0  0  0  0  0  0  0  0  0  0
   26.6627   -0.6050  -10.4421 C   0  0  2  0  0  0  0  0  0  0  0  0
   27.4825   -1.4555  -11.3919 C   0  0  0  0  0  0  0  0  0  0  0  0
   27.1051   -1.2727  -12.7096 O   0  0  0  0  0  0  0  0  0  0  0  0
   27.4207   -0.2944   -9.2068 C   0  0  0  0  0  0  0  0  0  0  0  0
   28.5311   -0.9503   -8.7624 C   0  0  0  0  0  0  0  0  0  0  0  0
   29.2512   -0.6749   -7.6351 C   0  0  0  0  0  0  0  0  0  0  0  0
   28.8028    0.3905   -6.8514 C   0  0  0  0  0  0  0  0  0  0  0  0
   27.6984    1.0904   -7.2352 C   0  0  0  0  0  0  0  0  0  0  0  0
   26.9911    0.7735   -8.3997 C   0  0  0  0  0  0  0  0  0  0  0  0
   20.7061   -1.4903  -10.2764 C   0  0  0  0  0  0  0  0  0  0  0  0
  1  2  3  0
  2  3  1  0
  3  4  2  0
  4  5  1  0
  5  6  1  0
  5  7  2  0
  7  8  1  0
  8  9  1  0
  9 10  1  0
 10 11  2  0
 10 12  1  0
 13 12  1  1
 13 14  1  0
 14 15  1  1
 13 16  1  0
 16 17  2  0
 17 18  1  0
 18 19  2  0
 19 20  1  0
 20 21  2  0
  8 22  2  0
 22  3  1  0
 21 16  1  0
M  END
$$$$
