_rank5
     RDKit          3D

 22 23  0  0  0  0  0  0  0  0999 V2000
   17.1045   -3.2211  -11.2201 N   0  0  0  0  0  0  0  0  0  0  0  0
   17.9228   -2.6033  -10.9891 C   0  0  0  0  0  0  0  0  0  0  0  0
   19.0958   -1.7243  -10.6850 C   0  0  0  0  0  0  0  0  0  0  0  0
   18.8370   -0.4356  -10.2558 C   0  0  0  0  0  0  0  0  0  0  0  0
   19.8352    0.4857  -10.0461 C   0  0  0  0  0  0  0  0  0  0  0  0
   19.5678    1.7445   -9.6445 F   0  0  0  0  0  0  0  0  0  0  0  0
   21.1484    0.0637  -10.2857 C   0  0  0  0  0  0  0  0  0  0  0  0
   21.4108   -1.2138  -10.7100 C   0  0  0  0  0  0  0  0  0  0  0  0
   22.7618   -1.5662  -11.0201 N   0  0  0  0  0  0  0  0  0  0  0  0
   23.6501   -0.4827  -11.3727 C   0  0  0  0  0  0  0  0  0  0  0  0
   23.2338    0.7049  -11.2333 O   0  0  0  0  0  0  0  0  0  0  0  0
   24.9323   -0.7090  -11.8544 N   0  0  0  0  0  0  0  0  0  0  0  0
   26.0306    0.2328  -11.7463 C   0  0  2  0  0  0  0  0  0  0  0  0
   26.9821   -0.0136  -12.9002 C   0  0  0  0  0  0  0  0  0  0  0  0
   26.8615   -1.2942  -13.4080 O   0  0  0  0  0  0  0  0  0  0  0  0
   26.7179    0.0868  -10.4412 C   0  0  0  0  0  0  0  0  0  0  0  0
   26.4287    0.7790   -9.3020 C   0  0  0  0  0  0  0  0  0  0  0  0
   27.0400    0.6533   -8.0873 C   0  0  0  0  0  0  0  0  0  0  0  0
   28.0733   -0.2823   -8.0011 C   0  0  0  0  0  0  0  0  0  0  0  0
   28.4162   -1.0096   -9.1012 C   0  0  0  0  0  0  0  0  0  0  0  0
   27.7614   -0.8483  -10.3268 C   0  0  0  0  0  0  0  0  0  0  0  0
   20.3658   -2.1321  -10.9136 C   0  0  0  0  0  0  0  0  0  0  0  0
  1  2  3  0
  2  3  1  0
  3  4  2  0
  4  5  1  0
  5  6  1  0
  5  7  2  0
  7  8  1  0
  8  9  1  0
  9 10  1  0
 10 11  2  0
 10 12  1  0
 13 12  1  1
 13 14  1  0
 14 15  1  1
 13 16  1  0
 16 17  2  0
 17 18  1  0
 18 19  2  0
 19 20  1  0
 20 21  2  0
  8 22  2  0
 22  3  1  0
 21 16  1  0
M  END
$$$$
