_rank18
     RDKit          3D

 22 23  0  0  0  0  0  0  0  0999 V2000
   28.9644    1.5333   -7.0818 N   0  0  0  0  0  0  0  0  0  0  0  0
   28.3422    0.8585   -7.5940 C   0  0  0  0  0  0  0  0  0  0  0  0
   27.4605   -0.0895   -8.3455 C   0  0  0  0  0  0  0  0  0  0  0  0
   27.8675   -1.4079   -8.4368 C   0  0  0  0  0  0  0  0  0  0  0  0
   27.1881   -2.3386   -9.1862 C   0  0  0  0  0  0  0  0  0  0  0  0
   27.6057   -3.6169   -9.2810 F   0  0  0  0  0  0  0  0  0  0  0  0
   26.0468   -1.8956   -9.8651 C   0  0  0  0  0  0  0  0  0  0  0  0
   25.6378   -0.5894   -9.7767 C   0  0  0  0  0  0  0  0  0  0  0  0
   24.5145   -0.1715  -10.5571 N   0  0  0  0  0  0  0  0  0  0  0  0
   23.3614   -1.0419  -10.5521 C   0  0  0  0  0  0  0  0  0  0  0  0
   23.4558   -2.1608   -9.9669 O   0  0  0  0  0  0  0  0  0  0  0  0
   22.1677   -0.6862  -11.1654 N   0  0  0  0  0  0  0  0  0  0  0  0
   21.2067   -1.6292  -11.7058 C   0  0  2  0  0  0  0  0  0  0  0  0
   21.1918   -1.4794  -13.2141 C   0  0  0  0  0  0  0  0  0  0  0  0
   21.8629   -0.3439  -13.6295 O   0  0  0  0  0  0  0  0  0  0  0  0
   19.8621   -1.3942  -11.1281 C   0  0  0  0  0  0  0  0  0  0  0  0
   19.0236   -2.3509  -10.6359 C   0  0  0  0  0  0  0  0  0  0  0  0
   17.7871   -2.1567  -10.0895 C   0  0  0  0  0  0  0  0  0  0  0  0
   17.3300   -0.8384  -10.0293 C   0  0  0  0  0  0  0  0  0  0  0  0
   18.1158    0.1688  -10.5037 C   0  0  0  0  0  0  0  0  0  0  0  0
   19.3778   -0.0764  -11.0551 C   0  0  0  0  0  0  0  0  0  0  0  0
   26.3554    0.3370   -9.0000 C   0  0  0  0  0  0  0  0  0  0  0  0
  1  2  3  0
  2  3  1  0
  3  4  2  0
  4  5  1  0
  5  6  1  0
  5  7  2  0
  7  8  1  0
  8  9  1  0
  9 10  1  0
 10 11  2  0
 10 12  1  0
 13 12  1  1
 13 14  1  0
 14 15  1  1
 13 16  1  0
 16 17  2  0
 17 18  1  0
 18 19  2  0
 19 20  1  0
 20 21  2  0
  8 22  2  0
 22  3  1  0
 21 16  1  0
M  END
$$$$
