_rank11
     RDKit          3D

 22 23  0  0  0  0  0  0  0  0999 V2000
   17.5683    1.9759   -9.2340 N   0  0  0  0  0  0  0  0  0  0  0  0
   18.2856    1.3282   -9.6470 C   0  0  0  0  0  0  0  0  0  0  0  0
   19.2882    0.3915  -10.2458 C   0  0  0  0  0  0  0  0  0  0  0  0
   18.9150   -0.3085  -11.3785 C   0  0  0  0  0  0  0  0  0  0  0  0
   19.7174   -1.2668  -11.9502 C   0  0  0  0  0  0  0  0  0  0  0  0
   19.3338   -1.9546  -13.0444 F   0  0  0  0  0  0  0  0  0  0  0  0
   20.9501   -1.5123  -11.3337 C   0  0  0  0  0  0  0  0  0  0  0  0
   21.3259   -0.8198  -10.2111 C   0  0  0  0  0  0  0  0  0  0  0  0
   22.5577   -1.1692   -9.5739 N   0  0  0  0  0  0  0  0  0  0  0  0
   23.7327   -1.2128  -10.4135 C   0  0  0  0  0  0  0  0  0  0  0  0
   23.7136   -0.5747  -11.5070 O   0  0  0  0  0  0  0  0  0  0  0  0
   24.8674   -1.9280  -10.0552 N   0  0  0  0  0  0  0  0  0  0  0  0
   26.1836   -1.7265  -10.6314 C   0  0  2  0  0  0  0  0  0  0  0  0
   26.9685   -3.0147  -10.4832 C   0  0  0  0  0  0  0  0  0  0  0  0
   26.7101   -3.6443   -9.2794 O   0  0  0  0  0  0  0  0  0  0  0  0
   26.8760   -0.5950   -9.9700 C   0  0  0  0  0  0  0  0  0  0  0  0
   27.1624   -0.4987   -8.6398 C   0  0  0  0  0  0  0  0  0  0  0  0
   27.8083    0.5273   -8.0112 C   0  0  0  0  0  0  0  0  0  0  0  0
   28.2184    1.5936   -8.8144 C   0  0  0  0  0  0  0  0  0  0  0  0
   27.9648    1.5644  -10.1530 C   0  0  0  0  0  0  0  0  0  0  0  0
   27.3000    0.4912  -10.7554 C   0  0  0  0  0  0  0  0  0  0  0  0
   20.4813    0.1554   -9.6523 C   0  0  0  0  0  0  0  0  0  0  0  0
  1  2  3  0
  2  3  1  0
  3  4  2  0
  4  5  1  0
  5  6  1  0
  5  7  2  0
  7  8  1  0
  8  9  1  0
  9 10  1  0
 10 11  2  0
 10 12  1  0
 13 12  1  1
 13 14  1  0
 14 15  1  1
 13 16  1  0
 16 17  2  0
 17 18  1  0
 18 19  2  0
 19 20  1  0
 20 21  2  0
  8 22  2  0
 22  3  1  0
 21 16  1  0
M  END
$$$$
