_rank1
     RDKit          3D

 22 23  0  0  0  0  0  0  0  0999 V2000
   18.7062    1.8416   -9.1289 N   0  0  0  0  0  0  0  0  0  0  0  0
   19.0305    1.0176   -9.6951 C   0  0  0  0  0  0  0  0  0  0  0  0
   19.4763   -0.1490  -10.5206 C   0  0  0  0  0  0  0  0  0  0  0  0
   18.5034   -1.0153  -10.9843 C   0  0  0  0  0  0  0  0  0  0  0  0
   18.8085   -2.1705  -11.6637 C   0  0  0  0  0  0  0  0  0  0  0  0
   17.8508   -3.0156  -12.0949 F   0  0  0  0  0  0  0  0  0  0  0  0
   20.1654   -2.4427  -11.8747 C   0  0  0  0  0  0  0  0  0  0  0  0
   21.1344   -1.5861  -11.4183 C   0  0  0  0  0  0  0  0  0  0  0  0
   22.5060   -1.9545  -11.5873 N   0  0  0  0  0  0  0  0  0  0  0  0
   23.4825   -0.8981  -11.4541 C   0  0  0  0  0  0  0  0  0  0  0  0
   23.0719    0.2690  -11.1848 O   0  0  0  0  0  0  0  0  0  0  0  0
   24.8424   -1.1283  -11.6123 N   0  0  0  0  0  0  0  0  0  0  0  0
   25.8736   -0.1229  -11.4367 C   0  0  2  0  0  0  0  0  0  0  0  0
   26.8858   -0.2815  -12.5537 C   0  0  0  0  0  0  0  0  0  0  0  0
   27.8523    0.7069  -12.5225 O   0  0  0  0  0  0  0  0  0  0  0  0
   26.5139   -0.2577  -10.1068 C   0  0  0  0  0  0  0  0  0  0  0  0
   26.9223    0.7689   -9.3068 C   0  0  0  0  0  0  0  0  0  0  0  0
   27.5033    0.6689   -8.0750 C   0  0  0  0  0  0  0  0  0  0  0  0
   27.7033   -0.6220   -7.5808 C   0  0  0  0  0  0  0  0  0  0  0  0
   27.3197   -1.6954   -8.3274 C   0  0  0  0  0  0  0  0  0  0  0  0
   26.7266   -1.5459   -9.5855 C   0  0  0  0  0  0  0  0  0  0  0  0
   20.7876   -0.4116  -10.7276 C   0  0  0  0  0  0  0  0  0  0  0  0
  1  2  3  0
  2  3  1  0
  3  4  2  0
  4  5  1  0
  5  6  1  0
  5  7  2  0
  7  8  1  0
  8  9  1  0
  9 10  1  0
 10 11  2  0
 10 12  1  0
 13 12  1  6
 13 14  1  0
 14 15  1  1
 13 16  1  0
 16 17  2  0
 17 18  1  0
 18 19  2  0
 19 20  1  0
 20 21  2  0
  8 22  2  0
 22  3  1  0
 21 16  1  0
M  END
$$$$
