_rank4
     RDKit          3D

 22 23  0  0  0  0  0  0  0  0999 V2000
   17.8041    1.9607   -8.9666 N   0  0  0  0  0  0  0  0  0  0  0  0
   18.3965    1.3005   -9.5303 C   0  0  0  0  0  0  0  0  0  0  0  0
   19.2550    0.3557  -10.3123 C   0  0  0  0  0  0  0  0  0  0  0  0
   18.7690   -0.9201  -10.5317 C   0  0  0  0  0  0  0  0  0  0  0  0
   19.5144   -1.8967  -11.1479 C   0  0  0  0  0  0  0  0  0  0  0  0
   19.0350   -3.1420  -11.3398 F   0  0  0  0  0  0  0  0  0  0  0  0
   20.8073   -1.5461  -11.5546 C   0  0  0  0  0  0  0  0  0  0  0  0
   21.2937   -0.2817  -11.3408 C   0  0  0  0  0  0  0  0  0  0  0  0
   22.6495   -0.0020  -11.7001 N   0  0  0  0  0  0  0  0  0  0  0  0
   23.6696   -0.4469  -10.7788 C   0  0  0  0  0  0  0  0  0  0  0  0
   23.4093   -0.4287   -9.5398 O   0  0  0  0  0  0  0  0  0  0  0  0
   24.9123   -0.8879  -11.2132 N   0  0  0  0  0  0  0  0  0  0  0  0
   26.1343   -0.1094  -11.1392 C   0  0  2  0  0  0  0  0  0  0  0  0
   26.9404   -0.3712  -12.3959 C   0  0  0  0  0  0  0  0  0  0  0  0
   28.0958    0.3873  -12.4388 O   0  0  0  0  0  0  0  0  0  0  0  0
   26.9048   -0.4603   -9.9225 C   0  0  0  0  0  0  0  0  0  0  0  0
   27.0847   -1.7169   -9.4233 C   0  0  0  0  0  0  0  0  0  0  0  0
   27.7987   -2.0645   -8.3122 C   0  0  0  0  0  0  0  0  0  0  0  0
   28.4088   -1.0230   -7.6098 C   0  0  0  0  0  0  0  0  0  0  0  0
   28.2703    0.2586   -8.0516 C   0  0  0  0  0  0  0  0  0  0  0  0
   27.5295    0.5690   -9.1968 C   0  0  0  0  0  0  0  0  0  0  0  0
   20.5040    0.6944  -10.7083 C   0  0  0  0  0  0  0  0  0  0  0  0
  1  2  3  0
  2  3  1  0
  3  4  2  0
  4  5  1  0
  5  6  1  0
  5  7  2  0
  7  8  1  0
  8  9  1  0
  9 10  1  0
 10 11  2  0
 10 12  1  0
 13 12  1  6
 13 14  1  0
 14 15  1  1
 13 16  1  0
 16 17  2  0
 17 18  1  0
 18 19  2  0
 19 20  1  0
 20 21  2  0
  8 22  2  0
 22  3  1  0
 21 16  1  0
M  END
$$$$
