_rank15
     RDKit          3D

 22 23  0  0  0  0  0  0  0  0999 V2000
   29.7308   -0.7135  -12.5838 N   0  0  0  0  0  0  0  0  0  0  0  0
   28.8847   -0.5673  -11.9777 C   0  0  0  0  0  0  0  0  0  0  0  0
   27.6689   -0.3806  -11.1244 C   0  0  0  0  0  0  0  0  0  0  0  0
   27.8118   -0.5486   -9.7593 C   0  0  0  0  0  0  0  0  0  0  0  0
   26.7440   -0.5007   -8.8952 C   0  0  0  0  0  0  0  0  0  0  0  0
   26.8948   -0.6838   -7.5681 F   0  0  0  0  0  0  0  0  0  0  0  0
   25.4829   -0.2697   -9.4574 C   0  0  0  0  0  0  0  0  0  0  0  0
   25.3357   -0.1008  -10.8105 C   0  0  0  0  0  0  0  0  0  0  0  0
   24.0157    0.0483  -11.3402 N   0  0  0  0  0  0  0  0  0  0  0  0
   22.9930   -0.8073  -10.7839 C   0  0  0  0  0  0  0  0  0  0  0  0
   23.0118   -1.0342   -9.5383 O   0  0  0  0  0  0  0  0  0  0  0  0
   22.0031   -1.3795  -11.5714 N   0  0  0  0  0  0  0  0  0  0  0  0
   20.7503   -1.9073  -11.0646 C   0  0  2  0  0  0  0  0  0  0  0  0
   20.0488   -2.6321  -12.1960 C   0  0  0  0  0  0  0  0  0  0  0  0
   20.6743   -3.8230  -12.5164 O   0  0  0  0  0  0  0  0  0  0  0  0
   19.9069   -0.8177  -10.5184 C   0  0  0  0  0  0  0  0  0  0  0  0
   20.2078    0.5127  -10.5346 C   0  0  0  0  0  0  0  0  0  0  0  0
   19.4422    1.5336  -10.0482 C   0  0  0  0  0  0  0  0  0  0  0  0
   18.2211    1.1791   -9.4703 C   0  0  0  0  0  0  0  0  0  0  0  0
   17.8562   -0.1328   -9.4194 C   0  0  0  0  0  0  0  0  0  0  0  0
   18.6725   -1.1468   -9.9315 C   0  0  0  0  0  0  0  0  0  0  0  0
   26.4497   -0.1545  -11.6665 C   0  0  0  0  0  0  0  0  0  0  0  0
  1  2  3  0
  2  3  1  0
  3  4  2  0
  4  5  1  0
  5  6  1  0
  5  7  2  0
  7  8  1  0
  8  9  1  0
  9 10  1  0
 10 11  2  0
 10 12  1  0
 13 12  1  6
 13 14  1  0
 14 15  1  1
 13 16  1  0
 16 17  2  0
 17 18  1  0
 18 19  2  0
 19 20  1  0
 20 21  2  0
  8 22  2  0
 22  3  1  0
 21 16  1  0
M  END
$$$$
