_rank14
     RDKit          3D

 22 23  0  0  0  0  0  0  0  0999 V2000
   17.8359    1.9375   -8.8487 N   0  0  0  0  0  0  0  0  0  0  0  0
   18.4585    1.3307   -9.4393 C   0  0  0  0  0  0  0  0  0  0  0  0
   19.3586    0.4876  -10.2878 C   0  0  0  0  0  0  0  0  0  0  0  0
   18.9668    0.2428  -11.5912 C   0  0  0  0  0  0  0  0  0  0  0  0
   19.6644   -0.5987  -12.4246 C   0  0  0  0  0  0  0  0  0  0  0  0
   19.2616   -0.8426  -13.6878 F   0  0  0  0  0  0  0  0  0  0  0  0
   20.8083   -1.2092  -11.8968 C   0  0  0  0  0  0  0  0  0  0  0  0
   21.2022   -0.9687  -10.6053 C   0  0  0  0  0  0  0  0  0  0  0  0
   22.3295   -1.6831  -10.0911 N   0  0  0  0  0  0  0  0  0  0  0  0
   23.6352   -1.1834  -10.4554 C   0  0  0  0  0  0  0  0  0  0  0  0
   23.7081   -0.2866  -11.3463 O   0  0  0  0  0  0  0  0  0  0  0  0
   24.7969   -1.6564   -9.8604 N   0  0  0  0  0  0  0  0  0  0  0  0
   26.1300   -1.4874  -10.4075 C   0  0  2  0  0  0  0  0  0  0  0  0
   26.8555   -2.8144  -10.3076 C   0  0  0  0  0  0  0  0  0  0  0  0
   26.4218   -3.5632   -9.2290 O   0  0  0  0  0  0  0  0  0  0  0  0
   26.8600   -0.4190   -9.6847 C   0  0  0  0  0  0  0  0  0  0  0  0
   27.8920   -0.6036   -8.8119 C   0  0  0  0  0  0  0  0  0  0  0  0
   28.5857    0.3648   -8.1441 C   0  0  0  0  0  0  0  0  0  0  0  0
   28.1971    1.6858   -8.3771 C   0  0  0  0  0  0  0  0  0  0  0  0
   27.1724    1.9442   -9.2374 C   0  0  0  0  0  0  0  0  0  0  0  0
   26.4894    0.9197   -9.9013 C   0  0  0  0  0  0  0  0  0  0  0  0
   20.4662   -0.1010   -9.7795 C   0  0  0  0  0  0  0  0  0  0  0  0
  1  2  3  0
  2  3  1  0
  3  4  2  0
  4  5  1  0
  5  6  1  0
  5  7  2  0
  7  8  1  0
  8  9  1  0
  9 10  1  0
 10 11  2  0
 10 12  1  0
 13 12  1  1
 13 14  1  0
 14 15  1  1
 13 16  1  0
 16 17  2  0
 17 18  1  0
 18 19  2  0
 19 20  1  0
 20 21  2  0
  8 22  2  0
 22  3  1  0
 21 16  1  0
M  END
$$$$
