_rank6
     RDKit          3D

 22 23  0  0  0  0  0  0  0  0999 V2000
   17.6703    1.7725   -9.2117 N   0  0  0  0  0  0  0  0  0  0  0  0
   18.3843    1.1203   -9.6233 C   0  0  0  0  0  0  0  0  0  0  0  0
   19.4023    0.1785  -10.1870 C   0  0  0  0  0  0  0  0  0  0  0  0
   19.3300   -1.1481   -9.8037 C   0  0  0  0  0  0  0  0  0  0  0  0
   20.2716   -2.0761  -10.1797 C   0  0  0  0  0  0  0  0  0  0  0  0
   20.1989   -3.3630   -9.7843 F   0  0  0  0  0  0  0  0  0  0  0  0
   21.3256   -1.6216  -10.9812 C   0  0  0  0  0  0  0  0  0  0  0  0
   21.4013   -0.3072  -11.3655 C   0  0  0  0  0  0  0  0  0  0  0  0
   22.5427    0.1207  -12.1135 N   0  0  0  0  0  0  0  0  0  0  0  0
   23.8373   -0.1422  -11.5284 C   0  0  0  0  0  0  0  0  0  0  0  0
   24.1207   -1.3337  -11.2074 O   0  0  0  0  0  0  0  0  0  0  0  0
   24.7662    0.8668  -11.3123 N   0  0  0  0  0  0  0  0  0  0  0  0
   26.2025    0.7039  -11.4358 C   0  0  2  0  0  0  0  0  0  0  0  0
   26.4743   -0.2639  -12.5703 C   0  0  0  0  0  0  0  0  0  0  0  0
   26.0901    0.2508  -13.7949 O   0  0  0  0  0  0  0  0  0  0  0  0
   26.7849    0.2178  -10.1624 C   0  0  0  0  0  0  0  0  0  0  0  0
   28.1021   -0.0559   -9.9371 C   0  0  0  0  0  0  0  0  0  0  0  0
   28.6620   -0.4931   -8.7708 C   0  0  0  0  0  0  0  0  0  0  0  0
   27.7942   -0.6828   -7.6931 C   0  0  0  0  0  0  0  0  0  0  0  0
   26.4642   -0.4292   -7.8471 C   0  0  0  0  0  0  0  0  0  0  0  0
   25.9337    0.0189   -9.0614 C   0  0  0  0  0  0  0  0  0  0  0  0
   20.4201    0.6163  -10.9642 C   0  0  0  0  0  0  0  0  0  0  0  0
  1  2  3  0
  2  3  1  0
  3  4  2  0
  4  5  1  0
  5  6  1  0
  5  7  2  0
  7  8  1  0
  8  9  1  0
  9 10  1  0
 10 11  2  0
 10 12  1  0
 13 12  1  1
 13 14  1  0
 14 15  1  1
 13 16  1  0
 16 17  2  0
 17 18  1  0
 18 19  2  0
 19 20  1  0
 20 21  2  0
  8 22  2  0
 22  3  1  0
 21 16  1  0
M  END
$$$$
