_rank2
     RDKit          3D

 21 22  0  0  0  0  0  0  0  0999 V2000
   27.2960    0.7524  -12.8939 C   0  0  0  0  0  0  0  0  0  0  0  0
   25.5860    0.3401  -12.5454 S   0  0  1  0  0  6  0  0  0  0  0  0
   24.6744    1.3608  -13.0829 O   0  0  0  0  0  0  0  0  0  0  0  0
   25.3449   -0.9901  -13.2544 O   0  0  0  0  0  0  0  0  0  0  0  0
   25.4047    0.0214  -10.8431 C   0  0  0  0  0  0  0  0  0  0  0  0
   26.5075    0.2558  -10.0261 C   0  0  0  0  0  0  0  0  0  0  0  0
   26.5255   -0.0034   -8.6765 C   0  0  0  0  0  0  0  0  0  0  0  0
   27.6537    0.2383   -7.8500 N   0  0  0  0  0  4  0  0  0  0  0  0
   27.6017   -0.0767   -6.6579 O   0  0  0  0  0  0  0  0  0  0  0  0
   28.8087    0.8140   -8.3337 O   0  0  0  0  0  1  0  0  0  0  0  0
   25.3737   -0.5242   -8.1280 C   0  0  0  0  0  0  0  0  0  0  0  0
   24.2786   -0.7603   -8.9160 C   0  0  0  0  0  0  0  0  0  0  0  0
   24.2541   -0.4969  -10.2928 C   0  0  0  0  0  0  0  0  0  0  0  0
   23.1221   -0.7579  -11.0369 O   0  0  0  0  0  0  0  0  0  0  0  0
   21.8251   -0.6326  -10.6432 C   0  0  0  0  0  0  0  0  0  0  0  0
   21.0306   -1.7840  -10.6817 C   0  0  0  0  0  0  0  0  0  0  0  0
   19.7519   -1.6483  -10.2908 N   0  0  0  0  0  0  0  0  0  0  0  0
   19.2547   -0.4669   -9.8819 C   0  0  0  0  0  0  0  0  0  0  0  0
   20.0180    0.6813   -9.8353 C   0  0  0  0  0  0  0  0  0  0  0  0
   19.4630    1.8634   -9.4099 F   0  0  0  0  0  0  0  0  0  0  0  0
   21.3356    0.5939  -10.2262 C   0  0  0  0  0  0  0  0  0  0  0  0
  1  2  1  1
  2  3  2  0
  2  4  2  0
  2  5  1  1
  5  6  2  0
  6  7  1  0
  7  8  1  0
  8  9  2  0
  8 10  1  0
  7 11  2  0
 11 12  1  0
 12 13  2  0
 13 14  1  0
 14 15  1  0
 15 16  2  0
 16 17  1  0
 17 18  2  0
 18 19  1  0
 19 20  1  0
 19 21  2  0
 13  5  1  0
 21 15  1  0
M  CHG  2   8   1  10  -1
M  END
$$$$
