_rank16
     RDKit          3D

 21 22  0  0  0  0  0  0  0  0999 V2000
   26.0219   -0.6624   -7.1034 C   0  0  0  0  0  0  0  0  0  0  0  0
   26.2122    0.6362   -8.3251 S   0  0  1  0  0  6  0  0  0  0  0  0
   25.3359    1.7783   -8.0257 O   0  0  0  0  0  0  0  0  0  0  0  0
   27.6729    1.0676   -8.2233 O   0  0  0  0  0  0  0  0  0  0  0  0
   26.0161   -0.0375   -9.9189 C   0  0  0  0  0  0  0  0  0  0  0  0
   27.1587   -0.5073  -10.5611 C   0  0  0  0  0  0  0  0  0  0  0  0
   27.1618   -1.0121  -11.8393 C   0  0  0  0  0  0  0  0  0  0  0  0
   28.3308   -1.4894  -12.4876 N   0  0  0  0  0  4  0  0  0  0  0  0
   28.3253   -1.6175  -13.7150 O   0  0  0  0  0  0  0  0  0  0  0  0
   29.4749   -1.8156  -11.7920 O   0  0  0  0  0  1  0  0  0  0  0  0
   25.9521   -1.0429  -12.4986 C   0  0  0  0  0  0  0  0  0  0  0  0
   24.8176   -0.5860  -11.8823 C   0  0  0  0  0  0  0  0  0  0  0  0
   24.8082   -0.0711  -10.5784 C   0  0  0  0  0  0  0  0  0  0  0  0
   23.6340    0.3775  -10.0097 O   0  0  0  0  0  0  0  0  0  0  0  0
   22.3878   -0.1497  -10.1578 C   0  0  0  0  0  0  0  0  0  0  0  0
   22.2883   -1.3826  -10.8124 C   0  0  0  0  0  0  0  0  0  0  0  0
   21.0531   -1.8934  -10.9527 N   0  0  0  0  0  0  0  0  0  0  0  0
   19.9629   -1.2559  -10.4891 C   0  0  0  0  0  0  0  0  0  0  0  0
   20.0358   -0.0403   -9.8409 C   0  0  0  0  0  0  0  0  0  0  0  0
   18.8926    0.5700   -9.3861 F   0  0  0  0  0  0  0  0  0  0  0  0
   21.2801    0.5249   -9.6722 C   0  0  0  0  0  0  0  0  0  0  0  0
  1  2  1  1
  2  3  2  0
  2  4  2  0
  2  5  1  6
  5  6  2  0
  6  7  1  0
  7  8  1  0
  8  9  2  0
  8 10  1  0
  7 11  2  0
 11 12  1  0
 12 13  2  0
 13 14  1  0
 14 15  1  0
 15 16  2  0
 16 17  1  0
 17 18  2  0
 18 19  1  0
 19 20  1  0
 19 21  2  0
 13  5  1  0
 21 15  1  0
M  CHG  2   8   1  10  -1
M  END
$$$$
