_rank13
     RDKit          3D

 21 22  0  0  0  0  0  0  0  0999 V2000
   26.1740   -1.4321   -7.6581 C   0  0  0  0  0  0  0  0  0  0  0  0
   26.8594    0.0603   -8.3779 S   0  0  1  0  0  6  0  0  0  0  0  0
   26.5408    1.2389   -7.5584 O   0  0  0  0  0  0  0  0  0  0  0  0
   28.3693   -0.1626   -8.3939 O   0  0  0  0  0  0  0  0  0  0  0  0
   26.3690    0.1749  -10.0449 C   0  0  0  0  0  0  0  0  0  0  0  0
   27.3744    0.2216  -11.0069 C   0  0  0  0  0  0  0  0  0  0  0  0
   27.1359    0.3676  -12.3525 C   0  0  0  0  0  0  0  0  0  0  0  0
   28.1663    0.4143  -13.3276 N   0  0  0  0  0  4  0  0  0  0  0  0
   27.8621    0.3773  -14.5230 O   0  0  0  0  0  0  0  0  0  0  0  0
   29.4984    0.4999  -12.9848 O   0  0  0  0  0  1  0  0  0  0  0  0
   25.8185    0.4713  -12.7429 C   0  0  0  0  0  0  0  0  0  0  0  0
   24.8161    0.4263  -11.8107 C   0  0  0  0  0  0  0  0  0  0  0  0
   25.0532    0.2764  -10.4370 C   0  0  0  0  0  0  0  0  0  0  0  0
   24.0027    0.2405   -9.5436 O   0  0  0  0  0  0  0  0  0  0  0  0
   22.6832    0.0577   -9.8237 C   0  0  0  0  0  0  0  0  0  0  0  0
   21.8489    1.1778   -9.7340 C   0  0  0  0  0  0  0  0  0  0  0  0
   20.5482    0.9853  -10.0128 N   0  0  0  0  0  0  0  0  0  0  0  0
   20.0665   -0.2215  -10.3612 C   0  0  0  0  0  0  0  0  0  0  0  0
   20.8689   -1.3397  -10.4563 C   0  0  0  0  0  0  0  0  0  0  0  0
   20.3282   -2.5498  -10.8162 F   0  0  0  0  0  0  0  0  0  0  0  0
   22.2102   -1.1940  -10.1802 C   0  0  0  0  0  0  0  0  0  0  0  0
  1  2  1  1
  2  3  2  0
  2  4  2  0
  2  5  1  6
  5  6  2  0
  6  7  1  0
  7  8  1  0
  8  9  2  0
  8 10  1  0
  7 11  2  0
 11 12  1  0
 12 13  2  0
 13 14  1  0
 14 15  1  0
 15 16  2  0
 16 17  1  0
 17 18  2  0
 18 19  1  0
 19 20  1  0
 19 21  2  0
 13  5  1  0
 21 15  1  0
M  CHG  2   8   1  10  -1
M  END
$$$$
