_rank7
     RDKit          3D

 21 22  0  0  0  0  0  0  0  0999 V2000
   25.2975   -0.8197  -13.3938 C   0  0  0  0  0  0  0  0  0  0  0  0
   25.9593    0.5725  -12.4777 S   0  0  1  0  0  6  0  0  0  0  0  0
   27.3611    0.8278  -12.8406 O   0  0  0  0  0  0  0  0  0  0  0  0
   25.0967    1.7638  -12.8859 O   0  0  0  0  0  0  0  0  0  0  0  0
   25.6771    0.3304  -10.7765 C   0  0  0  0  0  0  0  0  0  0  0  0
   26.7868    0.3364   -9.9355 C   0  0  0  0  0  0  0  0  0  0  0  0
   26.7195    0.1033   -8.5828 C   0  0  0  0  0  0  0  0  0  0  0  0
   27.8554    0.1110   -7.7316 N   0  0  0  0  0  4  0  0  0  0  0  0
   27.7251   -0.2387   -6.5554 O   0  0  0  0  0  0  0  0  0  0  0  0
   29.1022    0.4967   -8.1745 O   0  0  0  0  0  1  0  0  0  0  0  0
   25.4710   -0.1477   -8.0564 C   0  0  0  0  0  0  0  0  0  0  0  0
   24.3680   -0.1565   -8.8681 C   0  0  0  0  0  0  0  0  0  0  0  0
   24.4303    0.0817  -10.2483 C   0  0  0  0  0  0  0  0  0  0  0  0
   23.2849    0.0572  -11.0169 O   0  0  0  0  0  0  0  0  0  0  0  0
   22.0165   -0.2146  -10.6044 C   0  0  0  0  0  0  0  0  0  0  0  0
   21.6386   -1.5607  -10.5421 C   0  0  0  0  0  0  0  0  0  0  0  0
   20.3841   -1.8171  -10.1335 N   0  0  0  0  0  0  0  0  0  0  0  0
   19.5297   -0.8330   -9.7997 C   0  0  0  0  0  0  0  0  0  0  0  0
   19.8791    0.5006   -9.8531 C   0  0  0  0  0  0  0  0  0  0  0  0
   18.9696    1.4679   -9.5017 F   0  0  0  0  0  0  0  0  0  0  0  0
   21.1546    0.8151  -10.2659 C   0  0  0  0  0  0  0  0  0  0  0  0
  1  2  1  1
  2  3  2  0
  2  4  2  0
  2  5  1  1
  5  6  2  0
  6  7  1  0
  7  8  1  0
  8  9  2  0
  8 10  1  0
  7 11  2  0
 11 12  1  0
 12 13  2  0
 13 14  1  0
 14 15  1  0
 15 16  2  0
 16 17  1  0
 17 18  2  0
 18 19  1  0
 19 20  1  0
 19 21  2  0
 13  5  1  0
 21 15  1  0
M  CHG  2   8   1  10  -1
M  END
$$$$
