_rank20
     RDKit          3D

 21 22  0  0  0  0  0  0  0  0999 V2000
   25.2976   -0.4151   -6.7489 C   0  0  0  0  0  0  0  0  0  0  0  0
   26.2447    0.5152   -7.9543 S   0  0  1  0  0  6  0  0  0  0  0  0
   25.7946    1.9136   -8.0174 O   0  0  0  0  0  0  0  0  0  0  0  0
   27.6864    0.4605   -7.4558 O   0  0  0  0  0  0  0  0  0  0  0  0
   26.2266   -0.3281   -9.4777 C   0  0  0  0  0  0  0  0  0  0  0  0
   27.4538   -0.5803  -10.0852 C   0  0  0  0  0  0  0  0  0  0  0  0
   27.5872   -1.1854  -11.3119 C   0  0  0  0  0  0  0  0  0  0  0  0
   28.8419   -1.4394  -11.9250 N   0  0  0  0  0  4  0  0  0  0  0  0
   28.8779   -1.6996  -13.1308 O   0  0  0  0  0  0  0  0  0  0  0  0
   30.0248   -1.4054  -11.2185 O   0  0  0  0  0  1  0  0  0  0  0  0
   26.4245   -1.5525  -11.9540 C   0  0  0  0  0  0  0  0  0  0  0  0
   25.2084   -1.3133  -11.3712 C   0  0  0  0  0  0  0  0  0  0  0  0
   25.0662   -0.6975  -10.1198 C   0  0  0  0  0  0  0  0  0  0  0  0
   23.8140   -0.4797   -9.5833 O   0  0  0  0  0  0  0  0  0  0  0  0
   22.6089   -0.7169  -10.1703 C   0  0  0  0  0  0  0  0  0  0  0  0
   22.2282    0.1321  -11.2156 C   0  0  0  0  0  0  0  0  0  0  0  0
   21.0365   -0.1116  -11.7875 N   0  0  0  0  0  0  0  0  0  0  0  0
   20.2449   -1.1200  -11.3797 C   0  0  0  0  0  0  0  0  0  0  0  0
   20.5984   -1.9697  -10.3519 C   0  0  0  0  0  0  0  0  0  0  0  0
   19.7543   -2.9846   -9.9730 F   0  0  0  0  0  0  0  0  0  0  0  0
   21.8109   -1.7610   -9.7334 C   0  0  0  0  0  0  0  0  0  0  0  0
  1  2  1  1
  2  3  2  0
  2  4  2  0
  2  5  1  6
  5  6  2  0
  6  7  1  0
  7  8  1  0
  8  9  2  0
  8 10  1  0
  7 11  2  0
 11 12  1  0
 12 13  2  0
 13 14  1  0
 14 15  1  0
 15 16  2  0
 16 17  1  0
 17 18  2  0
 18 19  1  0
 19 20  1  0
 19 21  2  0
 13  5  1  0
 21 15  1  0
M  CHG  2   8   1  10  -1
M  END
$$$$
