_rank14
     RDKit          3D

 21 22  0  0  0  0  0  0  0  0999 V2000
   26.3664   -1.4026   -7.8383 C   0  0  0  0  0  0  0  0  0  0  0  0
   26.6585    0.2625   -8.4362 S   0  0  1  0  0  6  0  0  0  0  0  0
   25.9974    1.2573   -7.5787 O   0  0  0  0  0  0  0  0  0  0  0  0
   28.1719    0.4496   -8.3692 O   0  0  0  0  0  0  0  0  0  0  0  0
   26.2334    0.3530  -10.1225 C   0  0  0  0  0  0  0  0  0  0  0  0
   27.2752    0.3719  -11.0459 C   0  0  0  0  0  0  0  0  0  0  0  0
   27.0899    0.4967  -12.4020 C   0  0  0  0  0  0  0  0  0  0  0  0
   28.1571    0.5152  -13.3375 N   0  0  0  0  0  4  0  0  0  0  0  0
   28.2631    1.4743  -14.1068 O   0  0  0  0  0  0  0  0  0  0  0  0
   29.0818   -0.5037  -13.4169 O   0  0  0  0  0  1  0  0  0  0  0  0
   25.7895    0.6077  -12.8442 C   0  0  0  0  0  0  0  0  0  0  0  0
   24.7519    0.5899  -11.9505 C   0  0  0  0  0  0  0  0  0  0  0  0
   24.9348    0.4617  -10.5664 C   0  0  0  0  0  0  0  0  0  0  0  0
   23.8506    0.4529   -9.7134 O   0  0  0  0  0  0  0  0  0  0  0  0
   22.6359   -0.1244   -9.9238 C   0  0  0  0  0  0  0  0  0  0  0  0
   22.6238   -1.3894  -10.5223 C   0  0  0  0  0  0  0  0  0  0  0  0
   21.4190   -1.9496  -10.7251 N   0  0  0  0  0  0  0  0  0  0  0  0
   20.2781   -1.3300  -10.3726 C   0  0  0  0  0  0  0  0  0  0  0  0
   20.2647   -0.0834   -9.7816 C   0  0  0  0  0  0  0  0  0  0  0  0
   19.0725    0.5068   -9.4403 F   0  0  0  0  0  0  0  0  0  0  0  0
   21.4748    0.5326   -9.5525 C   0  0  0  0  0  0  0  0  0  0  0  0
  1  2  1  1
  2  3  2  0
  2  4  2  0
  2  5  1  6
  5  6  2  0
  6  7  1  0
  7  8  1  0
  8  9  2  0
  8 10  1  0
  7 11  2  0
 11 12  1  0
 12 13  2  0
 13 14  1  0
 14 15  1  0
 15 16  2  0
 16 17  1  0
 17 18  2  0
 18 19  1  0
 19 20  1  0
 19 21  2  0
 13  5  1  0
 21 15  1  0
M  CHG  2   8   1  10  -1
M  END
$$$$
