_rank3
     RDKit          3D

 21 22  0  0  0  0  0  0  0  0999 V2000
   27.8236    1.1936  -12.9730 C   0  0  0  0  0  0  0  0  0  0  0  0
   26.1039    0.7637  -12.7026 S   0  0  1  0  0  6  0  0  0  0  0  0
   25.2089    1.8167  -13.2049 O   0  0  0  0  0  0  0  0  0  0  0  0
   25.8850   -0.5206  -13.4978 O   0  0  0  0  0  0  0  0  0  0  0  0
   25.8706    0.3429  -11.0290 C   0  0  0  0  0  0  0  0  0  0  0  0
   26.9773    0.4223  -10.1879 C   0  0  0  0  0  0  0  0  0  0  0  0
   26.9529    0.0680   -8.8602 C   0  0  0  0  0  0  0  0  0  0  0  0
   28.0854    0.1517   -8.0088 N   0  0  0  0  0  4  0  0  0  0  0  0
   29.1348    0.6260   -8.4523 O   0  0  0  0  0  0  0  0  0  0  0  0
   28.0538   -0.2796   -6.7002 O   0  0  0  0  0  1  0  0  0  0  0  0
   25.7525   -0.3878   -8.3603 C   0  0  0  0  0  0  0  0  0  0  0  0
   24.6529   -0.4716   -9.1725 C   0  0  0  0  0  0  0  0  0  0  0  0
   24.6716   -0.1107  -10.5271 C   0  0  0  0  0  0  0  0  0  0  0  0
   23.5324   -0.2191  -11.2978 O   0  0  0  0  0  0  0  0  0  0  0  0
   22.2527   -0.3867  -10.8651 C   0  0  0  0  0  0  0  0  0  0  0  0
   21.6304    0.7145  -10.2662 C   0  0  0  0  0  0  0  0  0  0  0  0
   20.3671    0.5373   -9.8430 N   0  0  0  0  0  0  0  0  0  0  0  0
   19.7275   -0.6377   -9.9852 C   0  0  0  0  0  0  0  0  0  0  0  0
   20.3199   -1.7368  -10.5720 C   0  0  0  0  0  0  0  0  0  0  0  0
   19.6239   -2.9145  -10.6935 F   0  0  0  0  0  0  0  0  0  0  0  0
   21.6147   -1.6057  -11.0223 C   0  0  0  0  0  0  0  0  0  0  0  0
  1  2  1  1
  2  3  2  0
  2  4  2  0
  2  5  1  1
  5  6  2  0
  6  7  1  0
  7  8  1  0
  8  9  2  0
  8 10  1  0
  7 11  2  0
 11 12  1  0
 12 13  2  0
 13 14  1  0
 14 15  1  0
 15 16  2  0
 16 17  1  0
 17 18  2  0
 18 19  1  0
 19 20  1  0
 19 21  2  0
 13  5  1  0
 21 15  1  0
M  CHG  2   8   1  10  -1
M  END
$$$$
