_rank18
     RDKit          3D

 21 22  0  0  0  0  0  0  0  0999 V2000
   23.9822    2.5364  -10.3369 C   0  0  0  0  0  0  0  0  0  0  0  0
   25.4224    1.9615   -9.4365 S   0  0  1  0  0  6  0  0  0  0  0  0
   26.6085    2.7665   -9.7639 O   0  0  0  0  0  0  0  0  0  0  0  0
   25.0685    2.1421   -7.9627 O   0  0  0  0  0  0  0  0  0  0  0  0
   25.6110    0.2480   -9.6829 C   0  0  0  0  0  0  0  0  0  0  0  0
   26.8323   -0.3197   -9.3298 C   0  0  0  0  0  0  0  0  0  0  0  0
   27.1403   -1.6454   -9.5202 C   0  0  0  0  0  0  0  0  0  0  0  0
   28.3878   -2.2171   -9.1575 N   0  0  0  0  0  4  0  0  0  0  0  0
   28.8677   -3.1067   -9.8655 O   0  0  0  0  0  0  0  0  0  0  0  0
   29.0838   -1.8121   -8.0390 O   0  0  0  0  0  1  0  0  0  0  0  0
   26.1670   -2.4337  -10.0947 C   0  0  0  0  0  0  0  0  0  0  0  0
   24.9592   -1.8928  -10.4476 C   0  0  0  0  0  0  0  0  0  0  0  0
   24.6390   -0.5416  -10.2548 C   0  0  0  0  0  0  0  0  0  0  0  0
   23.4059   -0.0520  -10.6330 O   0  0  0  0  0  0  0  0  0  0  0  0
   22.2847   -0.7670  -10.9240 C   0  0  0  0  0  0  0  0  0  0  0  0
   21.5499   -0.3752  -12.0488 C   0  0  0  0  0  0  0  0  0  0  0  0
   20.4451   -1.0884  -12.3263 N   0  0  0  0  0  0  0  0  0  0  0  0
   20.0596   -2.1281  -11.5646 C   0  0  0  0  0  0  0  0  0  0  0  0
   20.7672   -2.5329  -10.4515 C   0  0  0  0  0  0  0  0  0  0  0  0
   20.3315   -3.6012   -9.7065 F   0  0  0  0  0  0  0  0  0  0  0  0
   21.9076   -1.8335  -10.1251 C   0  0  0  0  0  0  0  0  0  0  0  0
  1  2  1  1
  2  3  2  0
  2  4  2  0
  2  5  1  1
  5  6  2  0
  6  7  1  0
  7  8  1  0
  8  9  2  0
  8 10  1  0
  7 11  2  0
 11 12  1  0
 12 13  2  0
 13 14  1  0
 14 15  1  0
 15 16  2  0
 16 17  1  0
 17 18  2  0
 18 19  1  0
 19 20  1  0
 19 21  2  0
 13  5  1  0
 21 15  1  0
M  CHG  2   8   1  10  -1
M  END
$$$$
