_rank6
     RDKit          3D

 21 22  0  0  0  0  0  0  0  0999 V2000
   24.5886    0.7983  -13.2886 C   0  0  0  0  0  0  0  0  0  0  0  0
   26.0887    0.2717  -12.4594 S   0  0  1  0  0  6  0  0  0  0  0  0
   26.6180   -0.9641  -13.0551 O   0  0  0  0  0  0  0  0  0  0  0  0
   27.0817    1.4115  -12.6711 O   0  0  0  0  0  0  0  0  0  0  0  0
   25.8020    0.1916  -10.7436 C   0  0  0  0  0  0  0  0  0  0  0  0
   26.9148    0.1987   -9.9069 C   0  0  0  0  0  0  0  0  0  0  0  0
   26.8411    0.0847   -8.5392 C   0  0  0  0  0  0  0  0  0  0  0  0
   27.9802    0.0928   -7.6925 N   0  0  0  0  0  4  0  0  0  0  0  0
   29.0811    0.3780   -8.1717 O   0  0  0  0  0  0  0  0  0  0  0  0
   27.8993   -0.2076   -6.3499 O   0  0  0  0  0  1  0  0  0  0  0  0
   25.5825   -0.0425   -7.9928 C   0  0  0  0  0  0  0  0  0  0  0  0
   24.4763   -0.0504   -8.8003 C   0  0  0  0  0  0  0  0  0  0  0  0
   24.5452    0.0666  -10.1957 C   0  0  0  0  0  0  0  0  0  0  0  0
   23.3960    0.0495  -10.9587 O   0  0  0  0  0  0  0  0  0  0  0  0
   22.1585   -0.3747  -10.5826 C   0  0  0  0  0  0  0  0  0  0  0  0
   21.9605   -1.7560  -10.4761 C   0  0  0  0  0  0  0  0  0  0  0  0
   20.7349   -2.1631  -10.1040 N   0  0  0  0  0  0  0  0  0  0  0  0
   19.7437   -1.2909   -9.8456 C   0  0  0  0  0  0  0  0  0  0  0  0
   19.9147    0.0745   -9.9438 C   0  0  0  0  0  0  0  0  0  0  0  0
   18.8705    0.9233   -9.6691 F   0  0  0  0  0  0  0  0  0  0  0  0
   21.1536    0.5419  -10.3218 C   0  0  0  0  0  0  0  0  0  0  0  0
  1  2  1  1
  2  3  2  0
  2  4  2  0
  2  5  1  1
  5  6  2  0
  6  7  1  0
  7  8  1  0
  8  9  2  0
  8 10  1  0
  7 11  2  0
 11 12  1  0
 12 13  2  0
 13 14  1  0
 14 15  1  0
 15 16  2  0
 16 17  1  0
 17 18  2  0
 18 19  1  0
 19 20  1  0
 19 21  2  0
 13  5  1  0
 21 15  1  0
M  CHG  2   8   1  10  -1
M  END
$$$$
