_rank17
     RDKit          3D

 21 22  0  0  0  0  0  0  0  0999 V2000
   25.5525    2.4616   -8.7555 C   0  0  0  0  0  0  0  0  0  0  0  0
   25.2684    1.6011  -10.3027 S   0  0  1  0  0  6  0  0  0  0  0  0
   24.0259    2.0576  -10.9429 O   0  0  0  0  0  0  0  0  0  0  0  0
   26.4628    1.9599  -11.1829 O   0  0  0  0  0  0  0  0  0  0  0  0
   25.3637   -0.1167  -10.0337 C   0  0  0  0  0  0  0  0  0  0  0  0
   26.6317   -0.6909  -10.0011 C   0  0  0  0  0  0  0  0  0  0  0  0
   26.8546   -2.0390   -9.8533 C   0  0  0  0  0  0  0  0  0  0  0  0
   28.1505   -2.6172   -9.8209 N   0  0  0  0  0  4  0  0  0  0  0  0
   29.1366   -1.8761   -9.7871 O   0  0  0  0  0  0  0  0  0  0  0  0
   28.3462   -3.9814   -9.8257 O   0  0  0  0  0  1  0  0  0  0  0  0
   25.7425   -2.8436   -9.7329 C   0  0  0  0  0  0  0  0  0  0  0  0
   24.4874   -2.2963   -9.7617 C   0  0  0  0  0  0  0  0  0  0  0  0
   24.2539   -0.9220   -9.9110 C   0  0  0  0  0  0  0  0  0  0  0  0
   22.9661   -0.4278   -9.9358 O   0  0  0  0  0  0  0  0  0  0  0  0
   21.8441   -1.0616  -10.3745 C   0  0  0  0  0  0  0  0  0  0  0  0
   20.7870   -1.1928   -9.4669 C   0  0  0  0  0  0  0  0  0  0  0  0
   19.6845   -1.8202   -9.9112 N   0  0  0  0  0  0  0  0  0  0  0  0
   19.5957   -2.3002  -11.1648 C   0  0  0  0  0  0  0  0  0  0  0  0
   20.6240   -2.1829  -12.0770 C   0  0  0  0  0  0  0  0  0  0  0  0
   20.4837   -2.6902  -13.3456 F   0  0  0  0  0  0  0  0  0  0  0  0
   21.7758   -1.5475  -11.6695 C   0  0  0  0  0  0  0  0  0  0  0  0
  1  2  1  1
  2  3  2  0
  2  4  2  0
  2  5  1  1
  5  6  2  0
  6  7  1  0
  7  8  1  0
  8  9  2  0
  8 10  1  0
  7 11  2  0
 11 12  1  0
 12 13  2  0
 13 14  1  0
 14 15  1  0
 15 16  2  0
 16 17  1  0
 17 18  2  0
 18 19  1  0
 19 20  1  0
 19 21  2  0
 13  5  1  0
 21 15  1  0
M  CHG  2   8   1  10  -1
M  END
$$$$
