_rank12
     RDKit          3D

 21 22  0  0  0  0  0  0  0  0999 V2000
   28.1897   -0.3851   -8.2230 C   0  0  0  0  0  0  0  0  0  0  0  0
   26.5319   -0.9842   -8.5518 S   0  0  1  0  0  6  0  0  0  0  0  0
   26.4679   -2.4496   -8.4501 O   0  0  0  0  0  0  0  0  0  0  0  0
   25.6592   -0.3544   -7.4693 O   0  0  0  0  0  0  0  0  0  0  0  0
   25.9721   -0.3313  -10.0659 C   0  0  0  0  0  0  0  0  0  0  0  0
   26.9311   -0.0434  -11.0334 C   0  0  0  0  0  0  0  0  0  0  0  0
   26.6399    0.5258  -12.2500 C   0  0  0  0  0  0  0  0  0  0  0  0
   27.6231    0.8164  -13.2315 N   0  0  0  0  0  4  0  0  0  0  0  0
   28.8155    0.6816  -12.9434 O   0  0  0  0  0  0  0  0  0  0  0  0
   27.2915    1.2451  -14.4987 O   0  0  0  0  0  1  0  0  0  0  0  0
   25.3163    0.8172  -12.4992 C   0  0  0  0  0  0  0  0  0  0  0  0
   24.3591    0.5401  -11.5598 C   0  0  0  0  0  0  0  0  0  0  0  0
   24.6500   -0.0414  -10.3177 C   0  0  0  0  0  0  0  0  0  0  0  0
   23.6435   -0.2953   -9.4089 O   0  0  0  0  0  0  0  0  0  0  0  0
   22.3102   -0.0704   -9.5656 C   0  0  0  0  0  0  0  0  0  0  0  0
   21.6592    0.6468   -8.5555 C   0  0  0  0  0  0  0  0  0  0  0  0
   20.3431    0.8628   -8.7209 N   0  0  0  0  0  0  0  0  0  0  0  0
   19.6790    0.4144   -9.8016 C   0  0  0  0  0  0  0  0  0  0  0  0
   20.2987   -0.2945  -10.8099 C   0  0  0  0  0  0  0  0  0  0  0  0
   19.5758   -0.7306  -11.8931 F   0  0  0  0  0  0  0  0  0  0  0  0
   21.6478   -0.5418  -10.6867 C   0  0  0  0  0  0  0  0  0  0  0  0
  1  2  1  1
  2  3  2  0
  2  4  2  0
  2  5  1  6
  5  6  2  0
  6  7  1  0
  7  8  1  0
  8  9  2  0
  8 10  1  0
  7 11  2  0
 11 12  1  0
 12 13  2  0
 13 14  1  0
 14 15  1  0
 15 16  2  0
 16 17  1  0
 17 18  2  0
 18 19  1  0
 19 20  1  0
 19 21  2  0
 13  5  1  0
 21 15  1  0
M  CHG  2   8   1  10  -1
M  END
$$$$
