_rank10
     RDKit          3D

 22 23  0  0  0  0  0  0  0  0999 V2000
   26.8720    0.0926  -13.3795 C   0  0  0  0  0  0  0  0  0  0  0  0
   27.3475    0.8578  -11.8884 S   0  0  2  0  0  6  0  0  0  0  0  0
   26.5605    2.1626  -11.7546 O   0  0  0  0  0  0  0  0  0  0  0  0
   28.8006    1.3381  -11.9263 O   0  0  0  0  0  0  0  0  0  0  0  0
   27.1332   -0.0730  -10.4594 C   0  0  0  0  0  0  0  0  0  0  0  0
   28.1915   -0.1320   -9.5445 C   0  0  0  0  0  0  0  0  0  0  0  0
   28.0690   -0.8561   -8.3739 C   0  0  0  0  0  0  0  0  0  0  0  0
   26.9093   -1.5383   -8.0718 C   0  0  0  0  0  0  0  0  0  0  0  0
   25.9113   -1.4701   -8.9571 N   0  0  0  0  0  0  0  0  0  0  0  0
   26.0129   -0.7547  -10.1292 C   0  0  0  0  0  0  0  0  0  0  0  0
   24.8673   -0.7658  -11.0196 C   0  0  0  0  0  0  0  0  0  0  0  0
   24.9449   -1.3481  -12.1044 O   0  0  0  0  0  0  0  0  0  0  0  0
   23.6462   -0.1235  -10.6836 N   0  0  0  0  0  0  0  0  0  0  0  0
   22.3528   -0.6571  -10.9586 C   0  0  0  0  0  0  0  0  0  0  0  0
   22.0910   -1.2158  -12.1966 C   0  0  0  0  0  0  0  0  0  0  0  0
   20.8324   -1.7230  -12.4346 C   0  0  0  0  0  0  0  0  0  0  0  0
   20.5717   -2.2685  -13.6399 F   0  0  0  0  0  0  0  0  0  0  0  0
   19.8333   -1.6836  -11.4646 C   0  0  0  0  0  0  0  0  0  0  0  0
   20.0908   -1.1289  -10.2327 C   0  0  0  0  0  0  0  0  0  0  0  0
   19.0393   -1.1025   -9.2454 C   0  0  0  0  0  0  0  0  0  0  0  0
   18.1932   -1.0618   -8.4420 N   0  0  0  0  0  0  0  0  0  0  0  0
   21.3470   -0.6260  -10.0040 C   0  0  0  0  0  0  0  0  0  0  0  0
  1  2  1  1
  2  3  2  0
  2  4  2  0
  2  5  1  1
  5  6  2  0
  6  7  1  0
  7  8  2  0
  8  9  1  0
  9 10  2  0
 10 11  1  0
 11 12  2  0
 11 13  1  0
 13 14  1  0
 14 15  2  0
 15 16  1  0
 16 17  1  0
 16 18  2  0
 18 19  1  0
 19 20  1  0
 20 21  3  0
 19 22  2  0
 10  5  1  0
 22 14  1  0
M  END
$$$$
