_rank19
     RDKit          3D

 22 23  0  0  0  0  0  0  0  0999 V2000
   20.4205   -1.0658  -14.2226 C   0  0  0  0  0  0  0  0  0  0  0  0
   21.4859   -1.0995  -12.8446 S   0  0  2  0  0  6  0  0  0  0  0  0
   22.5138    0.0205  -13.0142 O   0  0  0  0  0  0  0  0  0  0  0  0
   22.3550   -2.3596  -12.8203 O   0  0  0  0  0  0  0  0  0  0  0  0
   20.7364   -0.9417  -11.3059 C   0  0  0  0  0  0  0  0  0  0  0  0
   19.3445   -0.7965  -11.2608 C   0  0  0  0  0  0  0  0  0  0  0  0
   18.6892   -0.6775  -10.0501 C   0  0  0  0  0  0  0  0  0  0  0  0
   19.3800   -0.6979   -8.8567 C   0  0  0  0  0  0  0  0  0  0  0  0
   20.7070   -0.8369   -8.9205 N   0  0  0  0  0  0  0  0  0  0  0  0
   21.3792   -0.9568  -10.1162 C   0  0  0  0  0  0  0  0  0  0  0  0
   22.8231   -1.0885  -10.0600 C   0  0  0  0  0  0  0  0  0  0  0  0
   23.3561   -2.1255  -10.4629 O   0  0  0  0  0  0  0  0  0  0  0  0
   23.6543   -0.0550   -9.5524 N   0  0  0  0  0  0  0  0  0  0  0  0
   25.0797   -0.0941   -9.5524 C   0  0  0  0  0  0  0  0  0  0  0  0
   25.7708    0.1099   -8.3716 C   0  0  0  0  0  0  0  0  0  0  0  0
   27.1475    0.0671   -8.4014 C   0  0  0  0  0  0  0  0  0  0  0  0
   27.8262    0.2657   -7.2533 F   0  0  0  0  0  0  0  0  0  0  0  0
   27.8456   -0.1745   -9.5825 C   0  0  0  0  0  0  0  0  0  0  0  0
   27.1611   -0.3779  -10.7579 C   0  0  0  0  0  0  0  0  0  0  0  0
   27.9081   -0.6279  -11.9664 C   0  0  0  0  0  0  0  0  0  0  0  0
   28.5055   -0.8129  -12.9523 N   0  0  0  0  0  0  0  0  0  0  0  0
   25.7901   -0.3336  -10.7194 C   0  0  0  0  0  0  0  0  0  0  0  0
  1  2  1  1
  2  3  2  0
  2  4  2  0
  2  5  1  1
  5  6  2  0
  6  7  1  0
  7  8  2  0
  8  9  1  0
  9 10  2  0
 10 11  1  0
 11 12  2  0
 11 13  1  0
 13 14  1  0
 14 15  2  0
 15 16  1  0
 16 17  1  0
 16 18  2  0
 18 19  1  0
 19 20  1  0
 20 21  3  0
 19 22  2  0
 10  5  1  0
 22 14  1  0
M  END
$$$$
