_rank1
     RDKit          3D

 22 23  0  0  0  0  0  0  0  0999 V2000
   26.8614   -0.5301  -13.4289 C   0  0  0  0  0  0  0  0  0  0  0  0
   26.7370    0.7495  -12.2532 S   0  0  2  0  0  6  0  0  0  0  0  0
   25.5152    1.5992  -12.6067 O   0  0  0  0  0  0  0  0  0  0  0  0
   27.8917    1.7484  -12.3661 O   0  0  0  0  0  0  0  0  0  0  0  0
   26.6193    0.2576  -10.6105 C   0  0  0  0  0  0  0  0  0  0  0  0
   27.7890    0.2383   -9.8413 C   0  0  0  0  0  0  0  0  0  0  0  0
   27.7499   -0.1376   -8.5121 C   0  0  0  0  0  0  0  0  0  0  0  0
   26.5665   -0.5028   -7.9056 C   0  0  0  0  0  0  0  0  0  0  0  0
   25.4617   -0.4782   -8.6560 N   0  0  0  0  0  0  0  0  0  0  0  0
   25.4789   -0.1071   -9.9818 C   0  0  0  0  0  0  0  0  0  0  0  0
   24.2176   -0.1327  -10.6987 C   0  0  0  0  0  0  0  0  0  0  0  0
   23.9708    0.7463  -11.5282 O   0  0  0  0  0  0  0  0  0  0  0  0
   23.2462   -1.1446  -10.4774 N   0  0  0  0  0  0  0  0  0  0  0  0
   21.8464   -0.9787  -10.6927 C   0  0  0  0  0  0  0  0  0  0  0  0
   21.1375   -1.9524  -11.3730 C   0  0  0  0  0  0  0  0  0  0  0  0
   19.7864   -1.7653  -11.5670 C   0  0  0  0  0  0  0  0  0  0  0  0
   19.0907   -2.7113  -12.2299 F   0  0  0  0  0  0  0  0  0  0  0  0
   19.1312   -0.6294  -11.0971 C   0  0  0  0  0  0  0  0  0  0  0  0
   19.8334    0.3403  -10.4202 C   0  0  0  0  0  0  0  0  0  0  0  0
   19.1305    1.5059   -9.9424 C   0  0  0  0  0  0  0  0  0  0  0  0
   18.5438    2.4396   -9.5589 N   0  0  0  0  0  0  0  0  0  0  0  0
   21.1787    0.1461  -10.2313 C   0  0  0  0  0  0  0  0  0  0  0  0
  1  2  1  1
  2  3  2  0
  2  4  2  0
  2  5  1  1
  5  6  2  0
  6  7  1  0
  7  8  2  0
  8  9  1  0
  9 10  2  0
 10 11  1  0
 11 12  2  0
 11 13  1  0
 13 14  1  0
 14 15  2  0
 15 16  1  0
 16 17  1  0
 16 18  2  0
 18 19  1  0
 19 20  1  0
 20 21  3  0
 19 22  2  0
 10  5  1  0
 22 14  1  0
M  END
$$$$
