_rank4
     RDKit          3D

 22 23  0  0  0  0  0  0  0  0999 V2000
   27.2438   -1.9039   -7.3189 C   0  0  0  0  0  0  0  0  0  0  0  0
   27.2955   -1.4464   -8.9991 S   0  0  2  0  0  6  0  0  0  0  0  0
   26.3268   -2.3491   -9.7649 O   0  0  0  0  0  0  0  0  0  0  0  0
   28.6461   -1.7717   -9.6425 O   0  0  0  0  0  0  0  0  0  0  0  0
   26.9233    0.1951   -9.3472 C   0  0  0  0  0  0  0  0  0  0  0  0
   27.9396    1.1475   -9.2043 C   0  0  0  0  0  0  0  0  0  0  0  0
   27.6985    2.4796   -9.4820 C   0  0  0  0  0  0  0  0  0  0  0  0
   26.4587    2.9099   -9.9057 C   0  0  0  0  0  0  0  0  0  0  0  0
   25.5024    1.9864  -10.0357 N   0  0  0  0  0  0  0  0  0  0  0  0
   25.7216    0.6545   -9.7639 C   0  0  0  0  0  0  0  0  0  0  0  0
   24.6018   -0.2535   -9.9283 C   0  0  0  0  0  0  0  0  0  0  0  0
   24.5153   -1.2504   -9.2069 O   0  0  0  0  0  0  0  0  0  0  0  0
   23.5906   -0.0336  -10.9007 N   0  0  0  0  0  0  0  0  0  0  0  0
   22.2184   -0.3814  -10.7291 C   0  0  0  0  0  0  0  0  0  0  0  0
   21.7401   -1.5659  -11.2598 C   0  0  0  0  0  0  0  0  0  0  0  0
   20.4099   -1.8759  -11.0792 C   0  0  0  0  0  0  0  0  0  0  0  0
   19.9384   -3.0291  -11.5948 F   0  0  0  0  0  0  0  0  0  0  0  0
   19.5507   -1.0298  -10.3817 C   0  0  0  0  0  0  0  0  0  0  0  0
   20.0236    0.1485   -9.8528 C   0  0  0  0  0  0  0  0  0  0  0  0
   19.1132    1.0056   -9.1333 C   0  0  0  0  0  0  0  0  0  0  0  0
   18.3851    1.7155   -8.5598 N   0  0  0  0  0  0  0  0  0  0  0  0
   21.3496    0.4495  -10.0373 C   0  0  0  0  0  0  0  0  0  0  0  0
  1  2  1  1
  2  3  2  0
  2  4  2  0
  2  5  1  1
  5  6  2  0
  6  7  1  0
  7  8  2  0
  8  9  1  0
  9 10  2  0
 10 11  1  0
 11 12  2  0
 11 13  1  0
 13 14  1  0
 14 15  2  0
 15 16  1  0
 16 17  1  0
 16 18  2  0
 18 19  1  0
 19 20  1  0
 20 21  3  0
 19 22  2  0
 10  5  1  0
 22 14  1  0
M  END
$$$$
