_rank2
     RDKit          3D

 22 23  0  0  0  0  0  0  0  0999 V2000
   26.7562   -0.9044  -13.1666 C   0  0  0  0  0  0  0  0  0  0  0  0
   27.3056    0.3598  -12.1011 S   0  0  2  0  0  6  0  0  0  0  0  0
   26.7273    1.6845  -12.6016 O   0  0  0  0  0  0  0  0  0  0  0  0
   28.8161    0.5851  -12.2069 O   0  0  0  0  0  0  0  0  0  0  0  0
   26.9122    0.1710  -10.4386 C   0  0  0  0  0  0  0  0  0  0  0  0
   27.9505    0.2415   -9.5019 C   0  0  0  0  0  0  0  0  0  0  0  0
   27.6891    0.1083   -8.1516 C   0  0  0  0  0  0  0  0  0  0  0  0
   26.4069   -0.0967   -7.6871 C   0  0  0  0  0  0  0  0  0  0  0  0
   25.4302   -0.1613   -8.5960 N   0  0  0  0  0  0  0  0  0  0  0  0
   25.6692   -0.0314   -9.9458 C   0  0  0  0  0  0  0  0  0  0  0  0
   24.5298   -0.1332  -10.8384 C   0  0  0  0  0  0  0  0  0  0  0  0
   24.5638   -0.9284  -11.7809 O   0  0  0  0  0  0  0  0  0  0  0  0
   23.3638    0.6584  -10.6643 N   0  0  0  0  0  0  0  0  0  0  0  0
   22.0363    0.1395  -10.6234 C   0  0  0  0  0  0  0  0  0  0  0  0
   21.7652   -1.0945  -11.1867 C   0  0  0  0  0  0  0  0  0  0  0  0
   20.4735   -1.5706  -11.1331 C   0  0  0  0  0  0  0  0  0  0  0  0
   20.2036   -2.7728  -11.6810 F   0  0  0  0  0  0  0  0  0  0  0  0
   19.4505   -0.8418  -10.5305 C   0  0  0  0  0  0  0  0  0  0  0  0
   19.7172    0.3852   -9.9695 C   0  0  0  0  0  0  0  0  0  0  0  0
   18.6403    1.1184   -9.3500 C   0  0  0  0  0  0  0  0  0  0  0  0
   17.7618    1.7169   -8.8672 N   0  0  0  0  0  0  0  0  0  0  0  0
   21.0064    0.8520  -10.0272 C   0  0  0  0  0  0  0  0  0  0  0  0
  1  2  1  1
  2  3  2  0
  2  4  2  0
  2  5  1  1
  5  6  2  0
  6  7  1  0
  7  8  2  0
  8  9  1  0
  9 10  2  0
 10 11  1  0
 11 12  2  0
 11 13  1  0
 13 14  1  0
 14 15  2  0
 15 16  1  0
 16 17  1  0
 16 18  2  0
 18 19  1  0
 19 20  1  0
 20 21  3  0
 19 22  2  0
 10  5  1  0
 22 14  1  0
M  END
$$$$
