_rank15
     RDKit          3D

 22 23  0  0  0  0  0  0  0  0999 V2000
   27.2598    1.2746  -11.0545 C   0  0  0  0  0  0  0  0  0  0  0  0
   27.3562    0.2408   -9.6555 S   0  0  2  0  0  6  0  0  0  0  0  0
   28.3570    0.8598   -8.6783 O   0  0  0  0  0  0  0  0  0  0  0  0
   27.9919   -1.1128   -9.9834 O   0  0  0  0  0  0  0  0  0  0  0  0
   25.8778   -0.0531   -8.8297 C   0  0  0  0  0  0  0  0  0  0  0  0
   25.7354    0.4496   -7.5307 C   0  0  0  0  0  0  0  0  0  0  0  0
   24.5635    0.2527   -6.8254 C   0  0  0  0  0  0  0  0  0  0  0  0
   23.5049   -0.4401   -7.3744 C   0  0  0  0  0  0  0  0  0  0  0  0
   23.6602   -0.9120   -8.6143 N   0  0  0  0  0  0  0  0  0  0  0  0
   24.8193   -0.7271   -9.3340 C   0  0  0  0  0  0  0  0  0  0  0  0
   24.8761   -1.2981  -10.6667 C   0  0  0  0  0  0  0  0  0  0  0  0
   25.9504   -1.7180  -11.1040 O   0  0  0  0  0  0  0  0  0  0  0  0
   23.7265   -1.3922  -11.4951 N   0  0  0  0  0  0  0  0  0  0  0  0
   22.4102   -1.0208  -11.0919 C   0  0  0  0  0  0  0  0  0  0  0  0
   22.1981    0.2075  -10.4921 C   0  0  0  0  0  0  0  0  0  0  0  0
   20.9161    0.5396  -10.1123 C   0  0  0  0  0  0  0  0  0  0  0  0
   20.7039    1.7355   -9.5268 F   0  0  0  0  0  0  0  0  0  0  0  0
   19.8453   -0.3272  -10.3186 C   0  0  0  0  0  0  0  0  0  0  0  0
   20.0531   -1.5490  -10.9150 C   0  0  0  0  0  0  0  0  0  0  0  0
   18.9267   -2.4270  -11.1188 C   0  0  0  0  0  0  0  0  0  0  0  0
   18.0026   -3.1215  -11.2819 N   0  0  0  0  0  0  0  0  0  0  0  0
   21.3330   -1.8719  -11.2902 C   0  0  0  0  0  0  0  0  0  0  0  0
  1  2  1  1
  2  3  2  0
  2  4  2  0
  2  5  1  1
  5  6  2  0
  6  7  1  0
  7  8  2  0
  8  9  1  0
  9 10  2  0
 10 11  1  0
 11 12  2  0
 11 13  1  0
 13 14  1  0
 14 15  2  0
 15 16  1  0
 16 17  1  0
 16 18  2  0
 18 19  1  0
 19 20  1  0
 20 21  3  0
 19 22  2  0
 10  5  1  0
 22 14  1  0
M  END
$$$$
