_rank11
     RDKit          3D

 22 23  0  0  0  0  0  0  0  0999 V2000
   26.6784   -3.1114   -9.9092 C   0  0  0  0  0  0  0  0  0  0  0  0
   27.6449   -1.6625   -9.8697 S   0  0  2  0  0  6  0  0  0  0  0  0
   28.0001   -1.2917  -11.3106 O   0  0  0  0  0  0  0  0  0  0  0  0
   29.0156   -1.9027   -9.2314 O   0  0  0  0  0  0  0  0  0  0  0  0
   26.9330   -0.2998   -9.1013 C   0  0  0  0  0  0  0  0  0  0  0  0
   27.6890    0.3894   -8.1454 C   0  0  0  0  0  0  0  0  0  0  0  0
   27.1701    1.4988   -7.5054 C   0  0  0  0  0  0  0  0  0  0  0  0
   25.9007    1.9590   -7.7859 C   0  0  0  0  0  0  0  0  0  0  0  0
   25.1952    1.2881   -8.7004 N   0  0  0  0  0  0  0  0  0  0  0  0
   25.6934    0.1805   -9.3493 C   0  0  0  0  0  0  0  0  0  0  0  0
   24.8284   -0.4739  -10.3131 C   0  0  0  0  0  0  0  0  0  0  0  0
   25.0826   -1.6251  -10.6764 O   0  0  0  0  0  0  0  0  0  0  0  0
   23.6867    0.1701  -10.8594 N   0  0  0  0  0  0  0  0  0  0  0  0
   22.3830   -0.4052  -10.9078 C   0  0  0  0  0  0  0  0  0  0  0  0
   22.1773   -1.5784  -11.6112 C   0  0  0  0  0  0  0  0  0  0  0  0
   20.9071   -2.1113  -11.6414 C   0  0  0  0  0  0  0  0  0  0  0  0
   20.7010   -3.2545  -12.3260 F   0  0  0  0  0  0  0  0  0  0  0  0
   19.8419   -1.4983  -10.9855 C   0  0  0  0  0  0  0  0  0  0  0  0
   20.0435   -0.3319  -10.2851 C   0  0  0  0  0  0  0  0  0  0  0  0
   18.9239    0.2813   -9.6132 C   0  0  0  0  0  0  0  0  0  0  0  0
   18.0247    0.7959   -9.0749 N   0  0  0  0  0  0  0  0  0  0  0  0
   21.3116    0.1920  -10.2602 C   0  0  0  0  0  0  0  0  0  0  0  0
  1  2  1  1
  2  3  2  0
  2  4  2  0
  2  5  1  1
  5  6  2  0
  6  7  1  0
  7  8  2  0
  8  9  1  0
  9 10  2  0
 10 11  1  0
 11 12  2  0
 11 13  1  0
 13 14  1  0
 14 15  2  0
 15 16  1  0
 16 17  1  0
 16 18  2  0
 18 19  1  0
 19 20  1  0
 20 21  3  0
 19 22  2  0
 10  5  1  0
 22 14  1  0
M  END
$$$$
