_rank20
     RDKit          3D

 22 23  0  0  0  0  0  0  0  0999 V2000
   25.4192    1.0129  -14.6492 C   0  0  0  0  0  0  0  0  0  0  0  0
   25.4311   -0.0113  -13.2399 S   0  0  2  0  0  6  0  0  0  0  0  0
   26.3740    0.6128  -12.2098 O   0  0  0  0  0  0  0  0  0  0  0  0
   26.0821   -1.3682  -13.5206 O   0  0  0  0  0  0  0  0  0  0  0  0
   23.9060   -0.2970  -12.5005 C   0  0  0  0  0  0  0  0  0  0  0  0
   22.8293   -0.6513  -13.3225 C   0  0  0  0  0  0  0  0  0  0  0  0
   21.5839   -0.9037  -12.7796 C   0  0  0  0  0  0  0  0  0  0  0  0
   21.3636   -0.8156  -11.4212 C   0  0  0  0  0  0  0  0  0  0  0  0
   22.4029   -0.4761  -10.6538 N   0  0  0  0  0  0  0  0  0  0  0  0
   23.6515   -0.2202  -11.1746 C   0  0  0  0  0  0  0  0  0  0  0  0
   24.6996    0.1534  -10.2433 C   0  0  0  0  0  0  0  0  0  0  0  0
   25.2835    1.2309  -10.3839 O   0  0  0  0  0  0  0  0  0  0  0  0
   25.0818   -0.6860   -9.1635 N   0  0  0  0  0  0  0  0  0  0  0  0
   25.7469   -0.2325   -7.9866 C   0  0  0  0  0  0  0  0  0  0  0  0
   27.0563    0.2066   -8.0655 C   0  0  0  0  0  0  0  0  0  0  0  0
   27.6741    0.6384   -6.9123 C   0  0  0  0  0  0  0  0  0  0  0  0
   28.9506    1.0671   -6.9835 F   0  0  0  0  0  0  0  0  0  0  0  0
   27.0130    0.6407   -5.6861 C   0  0  0  0  0  0  0  0  0  0  0  0
   25.7110    0.2050   -5.6047 C   0  0  0  0  0  0  0  0  0  0  0  0
   25.0489    0.2195   -4.3231 C   0  0  0  0  0  0  0  0  0  0  0  0
   24.5296    0.2227   -3.2775 N   0  0  0  0  0  0  0  0  0  0  0  0
   25.1032   -0.2235   -6.7580 C   0  0  0  0  0  0  0  0  0  0  0  0
  1  2  1  1
  2  3  2  0
  2  4  2  0
  2  5  1  1
  5  6  2  0
  6  7  1  0
  7  8  2  0
  8  9  1  0
  9 10  2  0
 10 11  1  0
 11 12  2  0
 11 13  1  0
 13 14  1  0
 14 15  2  0
 15 16  1  0
 16 17  1  0
 16 18  2  0
 18 19  1  0
 19 20  1  0
 20 21  3  0
 19 22  2  0
 10  5  1  0
 22 14  1  0
M  END
$$$$
