_rank14
     RDKit          3D

 22 23  0  0  0  0  0  0  0  0999 V2000
   28.8174    0.3092  -12.4272 C   0  0  0  0  0  0  0  0  0  0  0  0
   27.1343    0.1123  -12.0226 S   0  0  2  0  0  6  0  0  0  0  0  0
   26.6309   -1.1626  -12.7014 O   0  0  0  0  0  0  0  0  0  0  0  0
   26.2606    1.2013  -12.6507 O   0  0  0  0  0  0  0  0  0  0  0  0
   26.7641    0.0361  -10.3458 C   0  0  0  0  0  0  0  0  0  0  0  0
   27.7551    0.4161   -9.4326 C   0  0  0  0  0  0  0  0  0  0  0  0
   27.5073    0.3854   -8.0734 C   0  0  0  0  0  0  0  0  0  0  0  0
   26.2853   -0.0174   -7.5771 C   0  0  0  0  0  0  0  0  0  0  0  0
   25.3532   -0.3762   -8.4640 N   0  0  0  0  0  0  0  0  0  0  0  0
   25.5797   -0.3531   -9.8220 C   0  0  0  0  0  0  0  0  0  0  0  0
   24.4952   -0.7787  -10.6871 C   0  0  0  0  0  0  0  0  0  0  0  0
   24.5733   -1.8609  -11.2738 O   0  0  0  0  0  0  0  0  0  0  0  0
   23.3341    0.0146  -10.8848 N   0  0  0  0  0  0  0  0  0  0  0  0
   22.0303   -0.5109  -11.1238 C   0  0  0  0  0  0  0  0  0  0  0  0
   21.7041   -0.9895  -12.3800 C   0  0  0  0  0  0  0  0  0  0  0  0
   20.4368   -1.4908  -12.5824 C   0  0  0  0  0  0  0  0  0  0  0  0
   20.1135   -1.9584  -13.8051 F   0  0  0  0  0  0  0  0  0  0  0  0
   19.4921   -1.5237  -11.5592 C   0  0  0  0  0  0  0  0  0  0  0  0
   19.8137   -1.0487  -10.3091 C   0  0  0  0  0  0  0  0  0  0  0  0
   18.8176   -1.0961   -9.2668 C   0  0  0  0  0  0  0  0  0  0  0  0
   18.0258   -1.1301   -8.4095 N   0  0  0  0  0  0  0  0  0  0  0  0
   21.0780   -0.5511  -10.1162 C   0  0  0  0  0  0  0  0  0  0  0  0
  1  2  1  1
  2  3  2  0
  2  4  2  0
  2  5  1  1
  5  6  2  0
  6  7  1  0
  7  8  2  0
  8  9  1  0
  9 10  2  0
 10 11  1  0
 11 12  2  0
 11 13  1  0
 13 14  1  0
 14 15  2  0
 15 16  1  0
 16 17  1  0
 16 18  2  0
 18 19  1  0
 19 20  1  0
 20 21  3  0
 19 22  2  0
 10  5  1  0
 22 14  1  0
M  END
$$$$
