_rank18
     RDKit          3D

 22 23  0  0  0  0  0  0  0  0999 V2000
   27.4074   -1.7916  -10.0631 C   0  0  0  0  0  0  0  0  0  0  0  0
   27.1591   -0.5628   -8.8534 S   0  0  2  0  0  6  0  0  0  0  0  0
   28.4634   -0.3988   -8.0714 O   0  0  0  0  0  0  0  0  0  0  0  0
   26.1684   -1.0093   -7.7750 O   0  0  0  0  0  0  0  0  0  0  0  0
   26.6568    0.9761   -9.4313 C   0  0  0  0  0  0  0  0  0  0  0  0
   27.5807    2.0276   -9.3989 C   0  0  0  0  0  0  0  0  0  0  0  0
   27.2337    3.2825   -9.8619 C   0  0  0  0  0  0  0  0  0  0  0  0
   25.9759    3.5371  -10.3668 C   0  0  0  0  0  0  0  0  0  0  0  0
   25.1087    2.5214  -10.3890 N   0  0  0  0  0  0  0  0  0  0  0  0
   25.4342    1.2638   -9.9325 C   0  0  0  0  0  0  0  0  0  0  0  0
   24.4041    0.2437   -9.9944 C   0  0  0  0  0  0  0  0  0  0  0  0
   24.0269   -0.3045   -8.9557 O   0  0  0  0  0  0  0  0  0  0  0  0
   23.8077   -0.1507  -11.2213 N   0  0  0  0  0  0  0  0  0  0  0  0
   22.6449   -0.9693  -11.3256 C   0  0  0  0  0  0  0  0  0  0  0  0
   22.2489   -1.4427  -12.5636 C   0  0  0  0  0  0  0  0  0  0  0  0
   21.1212   -2.2309  -12.6346 C   0  0  0  0  0  0  0  0  0  0  0  0
   20.7305   -2.6947  -13.8389 F   0  0  0  0  0  0  0  0  0  0  0  0
   20.3835   -2.5549  -11.4981 C   0  0  0  0  0  0  0  0  0  0  0  0
   20.7751   -2.0859  -10.2659 C   0  0  0  0  0  0  0  0  0  0  0  0
   19.9946   -2.4378   -9.1049 C   0  0  0  0  0  0  0  0  0  0  0  0
   19.3738   -2.7093   -8.1541 N   0  0  0  0  0  0  0  0  0  0  0  0
   21.8993   -1.3015  -10.2042 C   0  0  0  0  0  0  0  0  0  0  0  0
  1  2  1  1
  2  3  2  0
  2  4  2  0
  2  5  1  6
  5  6  2  0
  6  7  1  0
  7  8  2  0
  8  9  1  0
  9 10  2  0
 10 11  1  0
 11 12  2  0
 11 13  1  0
 13 14  1  0
 14 15  2  0
 15 16  1  0
 16 17  1  0
 16 18  2  0
 18 19  1  0
 19 20  1  0
 20 21  3  0
 19 22  2  0
 10  5  1  0
 22 14  1  0
M  END
$$$$
