_rank5
     RDKit          3D

 22 23  0  0  0  0  0  0  0  0999 V2000
   26.3575    1.1827  -12.9346 C   0  0  0  0  0  0  0  0  0  0  0  0
   27.3280    0.0313  -12.0587 S   0  0  2  0  0  6  0  0  0  0  0  0
   28.7969    0.4193  -12.2358 O   0  0  0  0  0  0  0  0  0  0  0  0
   27.2663   -1.3654  -12.6824 O   0  0  0  0  0  0  0  0  0  0  0  0
   26.9889   -0.1213  -10.3806 C   0  0  0  0  0  0  0  0  0  0  0  0
   28.0665   -0.1248   -9.4865 C   0  0  0  0  0  0  0  0  0  0  0  0
   27.8504   -0.2330   -8.1259 C   0  0  0  0  0  0  0  0  0  0  0  0
   26.5763   -0.3401   -7.6093 C   0  0  0  0  0  0  0  0  0  0  0  0
   25.5617   -0.3351   -8.4781 N   0  0  0  0  0  0  0  0  0  0  0  0
   25.7552   -0.2285   -9.8372 C   0  0  0  0  0  0  0  0  0  0  0  0
   24.5763   -0.2485  -10.6830 C   0  0  0  0  0  0  0  0  0  0  0  0
   24.5745   -0.9335  -11.7089 O   0  0  0  0  0  0  0  0  0  0  0  0
   23.4115    0.5005  -10.3689 N   0  0  0  0  0  0  0  0  0  0  0  0
   22.0783    0.0168  -10.5168 C   0  0  0  0  0  0  0  0  0  0  0  0
   21.8381   -1.1052  -11.2894 C   0  0  0  0  0  0  0  0  0  0  0  0
   20.5401   -1.5496  -11.4151 C   0  0  0  0  0  0  0  0  0  0  0  0
   20.3004   -2.6427  -12.1674 F   0  0  0  0  0  0  0  0  0  0  0  0
   19.4808   -0.8984  -10.7872 C   0  0  0  0  0  0  0  0  0  0  0  0
   19.7167    0.2173  -10.0182 C   0  0  0  0  0  0  0  0  0  0  0  0
   18.6022    0.8716   -9.3773 C   0  0  0  0  0  0  0  0  0  0  0  0
   17.7062    1.4189   -8.8666 N   0  0  0  0  0  0  0  0  0  0  0  0
   21.0123    0.6532   -9.8983 C   0  0  0  0  0  0  0  0  0  0  0  0
  1  2  1  1
  2  3  2  0
  2  4  2  0
  2  5  1  1
  5  6  2  0
  6  7  1  0
  7  8  2  0
  8  9  1  0
  9 10  2  0
 10 11  1  0
 11 12  2  0
 11 13  1  0
 13 14  1  0
 14 15  2  0
 15 16  1  0
 16 17  1  0
 16 18  2  0
 18 19  1  0
 19 20  1  0
 20 21  3  0
 19 22  2  0
 10  5  1  0
 22 14  1  0
M  END
$$$$
