_rank6
     RDKit          3D

 22 23  0  0  0  0  0  0  0  0999 V2000
   26.1227    1.6520   -8.2307 C   0  0  0  0  0  0  0  0  0  0  0  0
   26.8191    0.1342   -8.7272 S   0  0  2  0  0  6  0  0  0  0  0  0
   26.1216   -0.9830   -7.9493 O   0  0  0  0  0  0  0  0  0  0  0  0
   28.2784   -0.0013   -8.2845 O   0  0  0  0  0  0  0  0  0  0  0  0
   26.7389   -0.2205  -10.4071 C   0  0  0  0  0  0  0  0  0  0  0  0
   27.9146   -0.1189  -11.1606 C   0  0  0  0  0  0  0  0  0  0  0  0
   27.9096   -0.4039  -12.5128 C   0  0  0  0  0  0  0  0  0  0  0  0
   26.7552   -0.7944  -13.1582 C   0  0  0  0  0  0  0  0  0  0  0  0
   25.6440   -0.8851  -12.4224 N   0  0  0  0  0  0  0  0  0  0  0  0
   25.6274   -0.6055  -11.0743 C   0  0  0  0  0  0  0  0  0  0  0  0
   24.3572   -0.7258  -10.3831 C   0  0  0  0  0  0  0  0  0  0  0  0
   24.1634   -0.0819   -9.3490 O   0  0  0  0  0  0  0  0  0  0  0  0
   23.3175   -1.5676  -10.8596 N   0  0  0  0  0  0  0  0  0  0  0  0
   21.9306   -1.2395  -10.8144 C   0  0  0  0  0  0  0  0  0  0  0  0
   21.0292   -1.9674  -11.5701 C   0  0  0  0  0  0  0  0  0  0  0  0
   19.6955   -1.6277  -11.5074 C   0  0  0  0  0  0  0  0  0  0  0  0
   18.8126   -2.3337  -12.2424 F   0  0  0  0  0  0  0  0  0  0  0  0
   19.2453   -0.5795  -10.7079 C   0  0  0  0  0  0  0  0  0  0  0  0
   20.1392    0.1458   -9.9552 C   0  0  0  0  0  0  0  0  0  0  0  0
   19.6465    1.2249   -9.1344 C   0  0  0  0  0  0  0  0  0  0  0  0
   19.2303    2.0881   -8.4675 N   0  0  0  0  0  0  0  0  0  0  0  0
   21.4657   -0.1991  -10.0236 C   0  0  0  0  0  0  0  0  0  0  0  0
  1  2  1  1
  2  3  2  0
  2  4  2  0
  2  5  1  6
  5  6  2  0
  6  7  1  0
  7  8  2  0
  8  9  1  0
  9 10  2  0
 10 11  1  0
 11 12  2  0
 11 13  1  0
 13 14  1  0
 14 15  2  0
 15 16  1  0
 16 17  1  0
 16 18  2  0
 18 19  1  0
 19 20  1  0
 20 21  3  0
 19 22  2  0
 10  5  1  0
 22 14  1  0
M  END
$$$$
