_rank7
     RDKit          3D

 22 23  0  0  0  0  0  0  0  0999 V2000
   26.5406   -1.7722  -12.4803 C   0  0  0  0  0  0  0  0  0  0  0  0
   27.2391   -0.3190  -11.8206 S   0  0  2  0  0  6  0  0  0  0  0  0
   26.7682    0.8609  -12.6726 O   0  0  0  0  0  0  0  0  0  0  0  0
   28.7595   -0.2809  -11.9954 O   0  0  0  0  0  0  0  0  0  0  0  0
   26.8861    0.0075  -10.1704 C   0  0  0  0  0  0  0  0  0  0  0  0
   27.9585    0.2003   -9.2911 C   0  0  0  0  0  0  0  0  0  0  0  0
   27.7319    0.4773   -7.9563 C   0  0  0  0  0  0  0  0  0  0  0  0
   26.4520    0.5719   -7.4517 C   0  0  0  0  0  0  0  0  0  0  0  0
   25.4424    0.3845   -8.3061 N   0  0  0  0  0  0  0  0  0  0  0  0
   25.6464    0.1074   -9.6393 C   0  0  0  0  0  0  0  0  0  0  0  0
   24.4715   -0.0904  -10.4675 C   0  0  0  0  0  0  0  0  0  0  0  0
   24.5008   -0.9235  -11.3768 O   0  0  0  0  0  0  0  0  0  0  0  0
   23.2757    0.6487  -10.2667 N   0  0  0  0  0  0  0  0  0  0  0  0
   21.9644    0.1376  -10.4963 C   0  0  0  0  0  0  0  0  0  0  0  0
   21.8001   -1.0232  -11.2304 C   0  0  0  0  0  0  0  0  0  0  0  0
   20.5217   -1.4934  -11.4370 C   0  0  0  0  0  0  0  0  0  0  0  0
   20.3559   -2.6244  -12.1523 F   0  0  0  0  0  0  0  0  0  0  0  0
   19.4079   -0.8301  -10.9271 C   0  0  0  0  0  0  0  0  0  0  0  0
   19.5683    0.3241  -10.1966 C   0  0  0  0  0  0  0  0  0  0  0  0
   18.3985    0.9903   -9.6782 C   0  0  0  0  0  0  0  0  0  0  0  0
   17.4410    1.5124   -9.2614 N   0  0  0  0  0  0  0  0  0  0  0  0
   20.8449    0.7856   -9.9955 C   0  0  0  0  0  0  0  0  0  0  0  0
  1  2  1  1
  2  3  2  0
  2  4  2  0
  2  5  1  1
  5  6  2  0
  6  7  1  0
  7  8  2  0
  8  9  1  0
  9 10  2  0
 10 11  1  0
 11 12  2  0
 11 13  1  0
 13 14  1  0
 14 15  2  0
 15 16  1  0
 16 17  1  0
 16 18  2  0
 18 19  1  0
 19 20  1  0
 20 21  3  0
 19 22  2  0
 10  5  1  0
 22 14  1  0
M  END
$$$$
