_rank9
     RDKit          3D

 22 23  0  0  0  0  0  0  0  0999 V2000
   25.7377   -0.3261   -7.5660 C   0  0  0  0  0  0  0  0  0  0  0  0
   26.7680    0.3985   -8.7696 S   0  0  2  0  0  6  0  0  0  0  0  0
   28.1855    0.4674   -8.1991 O   0  0  0  0  0  0  0  0  0  0  0  0
   26.4247    1.8710   -9.0096 O   0  0  0  0  0  0  0  0  0  0  0  0
   26.8178   -0.3905  -10.2959 C   0  0  0  0  0  0  0  0  0  0  0  0
   28.0688   -0.7411  -10.8178 C   0  0  0  0  0  0  0  0  0  0  0  0
   28.1663   -1.3876  -12.0352 C   0  0  0  0  0  0  0  0  0  0  0  0
   27.0430   -1.7056  -12.7693 C   0  0  0  0  0  0  0  0  0  0  0  0
   25.8589   -1.3626  -12.2548 N   0  0  0  0  0  0  0  0  0  0  0  0
   25.7399   -0.7180  -11.0440 C   0  0  0  0  0  0  0  0  0  0  0  0
   24.4014   -0.3838  -10.5943 C   0  0  0  0  0  0  0  0  0  0  0  0
   24.1614    0.7574  -10.1920 O   0  0  0  0  0  0  0  0  0  0  0  0
   23.3457   -1.3336  -10.6007 N   0  0  0  0  0  0  0  0  0  0  0  0
   21.9676   -1.0056  -10.7629 C   0  0  0  0  0  0  0  0  0  0  0  0
   21.2605   -1.5260  -11.8319 C   0  0  0  0  0  0  0  0  0  0  0  0
   19.9305   -1.1916  -11.9640 C   0  0  0  0  0  0  0  0  0  0  0  0
   19.2367   -1.6958  -13.0045 F   0  0  0  0  0  0  0  0  0  0  0  0
   19.2946   -0.3508  -11.0534 C   0  0  0  0  0  0  0  0  0  0  0  0
   19.9951    0.1679   -9.9895 C   0  0  0  0  0  0  0  0  0  0  0  0
   19.3123    1.0345   -9.0600 C   0  0  0  0  0  0  0  0  0  0  0  0
   18.7777    1.7427   -8.3013 N   0  0  0  0  0  0  0  0  0  0  0  0
   21.3193   -0.1702   -9.8654 C   0  0  0  0  0  0  0  0  0  0  0  0
  1  2  1  1
  2  3  2  0
  2  4  2  0
  2  5  1  6
  5  6  2  0
  6  7  1  0
  7  8  2  0
  8  9  1  0
  9 10  2  0
 10 11  1  0
 11 12  2  0
 11 13  1  0
 13 14  1  0
 14 15  2  0
 15 16  1  0
 16 17  1  0
 16 18  2  0
 18 19  1  0
 19 20  1  0
 20 21  3  0
 19 22  2  0
 10  5  1  0
 22 14  1  0
M  END
$$$$
