_rank14
     RDKit          3D

 28 30  0  0  0  0  0  0  0  0999 V2000
   17.6957   -3.9717  -10.8646 N   0  0  0  0  0  0  0  0  0  0  0  0
   18.3460   -3.0406  -10.7979 C   0  0  0  0  0  0  0  0  0  0  0  0
   19.1678   -1.8732  -10.6897 C   0  0  0  0  0  0  0  0  0  0  0  0
   18.7074   -0.7642  -10.0069 C   0  0  0  0  0  0  0  0  0  0  0  0
   19.4689    0.3797   -9.8803 C   0  0  0  0  0  0  0  0  0  0  0  0
   18.9936    1.4540   -9.2052 F   0  0  0  0  0  0  0  0  0  0  0  0
   20.7439    0.4459  -10.4483 C   0  0  0  0  0  0  0  0  0  0  0  0
   21.2091   -0.6585  -11.1314 C   0  0  0  0  0  0  0  0  0  0  0  0
   22.4640   -0.5928  -11.6902 O   0  0  0  0  0  0  0  0  0  0  0  0
   23.6249   -0.5209  -10.9114 C   0  0  0  0  0  0  0  0  0  0  0  0
   23.5835   -0.8474   -9.5726 C   0  0  0  0  0  0  0  0  0  0  0  0
   24.7320   -0.7731   -8.8149 C   0  0  0  0  0  0  0  0  0  0  0  0
   25.9515   -0.3708   -9.3757 C   0  0  0  0  0  0  0  0  0  0  0  0
   27.3889   -0.2738   -8.4007 S   0  0  2  0  0  6  0  0  0  0  0  0
   27.1135    0.4593   -7.1106 O   0  0  0  0  0  0  0  0  0  0  0  0
   28.4145    0.4882   -9.2257 O   0  0  0  0  0  0  0  0  0  0  0  0
   28.0125   -1.8849   -8.0753 C   0  0  1  0  0  0  0  0  0  0  0  0
   28.4586   -2.5140   -9.2336 F   0  0  0  0  0  0  0  0  0  0  0  0
   29.1210   -1.8495   -7.2295 F   0  0  0  0  0  0  0  0  0  0  0  0
   25.9997   -0.0455  -10.7053 C   0  0  0  0  0  0  0  0  0  0  0  0
   24.8321   -0.1229  -11.4660 C   0  0  0  0  0  0  0  0  0  0  0  0
   25.1710    0.2853  -12.8503 C   0  0  0  0  0  0  0  0  0  0  0  0
   26.3161    1.2782  -12.5944 C   0  0  2  0  0  0  0  0  0  0  0  0
   25.7828    2.3821  -11.9949 F   0  0  0  0  0  0  0  0  0  0  0  0
   27.0241    1.5183  -13.7291 F   0  0  0  0  0  0  0  0  0  0  0  0
   27.1125    0.4145  -11.5891 C   0  0  2  0  0  0  0  0  0  0  0  0
   27.5716   -0.6802  -12.3283 O   0  0  0  0  0  0  0  0  0  0  0  0
   20.4334   -1.7910  -11.2465 C   0  0  0  0  0  0  0  0  0  0  0  0
  1  2  3  0
  2  3  1  0
  3  4  2  0
  4  5  1  0
  5  6  1  0
  5  7  2  0
  7  8  1  0
  8  9  1  0
  9 10  1  0
 10 11  2  0
 11 12  1  0
 12 13  2  0
 14 13  1  6
 14 15  2  0
 14 16  2  0
 14 17  1  0
 17 18  1  6
 17 19  1  0
 13 20  1  0
 20 21  2  0
 22 21  1  6
 22 23  1  0
 23 24  1  1
 23 25  1  0
 23 26  1  0
 26 27  1  6
  8 28  2  0
 28  3  1  0
 21 10  1  0
 26 20  1  0
M  END
$$$$
