_rank3
     RDKit          3D

 28 30  0  0  0  0  0  0  0  0999 V2000
   18.2138   -3.9829  -11.0681 N   0  0  0  0  0  0  0  0  0  0  0  0
   18.6785   -2.9549  -10.9209 C   0  0  0  0  0  0  0  0  0  0  0  0
   19.2410   -1.6523  -10.7292 C   0  0  0  0  0  0  0  0  0  0  0  0
   18.5386   -0.6923  -10.0271 C   0  0  0  0  0  0  0  0  0  0  0  0
   19.0460    0.5744   -9.8208 C   0  0  0  0  0  0  0  0  0  0  0  0
   18.3364    1.4978   -9.1284 F   0  0  0  0  0  0  0  0  0  0  0  0
   20.3020    0.9228  -10.3247 C   0  0  0  0  0  0  0  0  0  0  0  0
   21.0081   -0.0318  -11.0267 C   0  0  0  0  0  0  0  0  0  0  0  0
   22.2442    0.3117  -11.5223 O   0  0  0  0  0  0  0  0  0  0  0  0
   23.4295    0.0271  -10.8344 C   0  0  0  0  0  0  0  0  0  0  0  0
   23.3869   -0.3816   -9.5184 C   0  0  0  0  0  0  0  0  0  0  0  0
   24.5597   -0.6591   -8.8503 C   0  0  0  0  0  0  0  0  0  0  0  0
   25.8052   -0.5354   -9.4803 C   0  0  0  0  0  0  0  0  0  0  0  0
   27.2757   -0.8809   -8.6173 S   0  0  2  0  0  6  0  0  0  0  0  0
   28.1432   -1.8381   -9.3975 O   0  0  0  0  0  0  0  0  0  0  0  0
   26.8588   -1.5109   -7.2974 O   0  0  0  0  0  0  0  0  0  0  0  0
   28.1467    0.6085   -8.2802 C   0  0  1  0  0  0  0  0  0  0  0  0
   27.9649    1.0318   -6.9672 F   0  0  0  0  0  0  0  0  0  0  0  0
   29.5244    0.4458   -8.4234 F   0  0  0  0  0  0  0  0  0  0  0  0
   25.8546   -0.1303  -10.7877 C   0  0  0  0  0  0  0  0  0  0  0  0
   24.6624    0.1493  -11.4575 C   0  0  0  0  0  0  0  0  0  0  0  0
   25.0102    0.5652  -12.8372 C   0  0  0  0  0  0  0  0  0  0  0  0
   26.3857    1.2136  -12.6133 C   0  0  2  0  0  0  0  0  0  0  0  0
   26.1921    2.3662  -11.9088 F   0  0  0  0  0  0  0  0  0  0  0  0
   27.0614    1.3547  -13.7838 F   0  0  0  0  0  0  0  0  0  0  0  0
   26.9925    0.1011  -11.7273 C   0  0  2  0  0  0  0  0  0  0  0  0
   27.1084   -1.0130  -12.5644 O   0  0  0  0  0  0  0  0  0  0  0  0
   20.4840   -1.2907  -11.2217 C   0  0  0  0  0  0  0  0  0  0  0  0
  1  2  3  0
  2  3  1  0
  3  4  2  0
  4  5  1  0
  5  6  1  0
  5  7  2  0
  7  8  1  0
  8  9  1  0
  9 10  1  0
 10 11  2  0
 11 12  1  0
 12 13  2  0
 14 13  1  6
 14 15  2  0
 14 16  2  0
 14 17  1  0
 17 18  1  1
 17 19  1  0
 13 20  1  0
 20 21  2  0
 22 21  1  6
 22 23  1  0
 23 24  1  1
 23 25  1  0
 23 26  1  0
 26 27  1  6
  8 28  2  0
 28  3  1  0
 21 10  1  0
 26 20  1  0
M  END
$$$$
