_rank13
     RDKit          3D

 28 30  0  0  0  0  0  0  0  0999 V2000
   17.8208    1.8591   -8.9148 N   0  0  0  0  0  0  0  0  0  0  0  0
   18.4459    1.0854   -9.4670 C   0  0  0  0  0  0  0  0  0  0  0  0
   19.2430    0.1049  -10.1402 C   0  0  0  0  0  0  0  0  0  0  0  0
   18.7733   -1.1858  -10.2873 C   0  0  0  0  0  0  0  0  0  0  0  0
   19.5110   -2.1593  -10.9296 C   0  0  0  0  0  0  0  0  0  0  0  0
   19.0271   -3.4180  -11.0604 F   0  0  0  0  0  0  0  0  0  0  0  0
   20.7705   -1.8593  -11.4552 C   0  0  0  0  0  0  0  0  0  0  0  0
   21.2449   -0.5720  -11.3114 C   0  0  0  0  0  0  0  0  0  0  0  0
   22.4846   -0.2774  -11.8289 O   0  0  0  0  0  0  0  0  0  0  0  0
   23.6415   -0.2774  -11.0409 C   0  0  0  0  0  0  0  0  0  0  0  0
   23.5544   -0.4842   -9.6807 C   0  0  0  0  0  0  0  0  0  0  0  0
   24.6994   -0.4821   -8.9140 C   0  0  0  0  0  0  0  0  0  0  0  0
   25.9609   -0.2733   -9.4872 C   0  0  0  0  0  0  0  0  0  0  0  0
   27.3943   -0.2643   -8.5015 S   0  0  2  0  0  6  0  0  0  0  0  0
   27.1063    0.3230   -7.1415 O   0  0  0  0  0  0  0  0  0  0  0  0
   28.4129    0.5937   -9.2360 O   0  0  0  0  0  0  0  0  0  0  0  0
   28.0366   -1.8936   -8.3480 C   0  0  1  0  0  0  0  0  0  0  0  0
   27.1853   -2.8431   -8.9047 F   0  0  0  0  0  0  0  0  0  0  0  0
   29.2434   -2.0404   -9.0316 F   0  0  0  0  0  0  0  0  0  0  0  0
   26.0545   -0.0676  -10.8381 C   0  0  0  0  0  0  0  0  0  0  0  0
   24.8902   -0.0709  -11.6077 C   0  0  0  0  0  0  0  0  0  0  0  0
   25.2826    0.1783  -13.0154 C   0  0  0  0  0  0  0  0  0  0  0  0
   26.5353    1.0482  -12.8242 C   0  0  2  0  0  0  0  0  0  0  0  0
   26.1325    2.2529  -12.3255 F   0  0  0  0  0  0  0  0  0  0  0  0
   27.2730    1.1085  -13.9638 F   0  0  0  0  0  0  0  0  0  0  0  0
   27.2187    0.1839  -11.7395 C   0  0  2  0  0  0  0  0  0  0  0  0
   27.5496   -1.0147  -12.3793 O   0  0  0  0  0  0  0  0  0  0  0  0
   20.4930    0.3854  -10.6668 C   0  0  0  0  0  0  0  0  0  0  0  0
  1  2  3  0
  2  3  1  0
  3  4  2  0
  4  5  1  0
  5  6  1  0
  5  7  2  0
  7  8  1  0
  8  9  1  0
  9 10  1  0
 10 11  2  0
 11 12  1  0
 12 13  2  0
 14 13  1  6
 14 15  2  0
 14 16  2  0
 14 17  1  0
 17 18  1  6
 17 19  1  0
 13 20  1  0
 20 21  2  0
 22 21  1  6
 22 23  1  0
 23 24  1  1
 23 25  1  0
 23 26  1  0
 26 27  1  6
  8 28  2  0
 28  3  1  0
 21 10  1  0
 26 20  1  0
M  END
$$$$
