_rank17
     RDKit          3D

 28 30  0  0  0  0  0  0  0  0999 V2000
   18.0422    1.8560   -9.0330 N   0  0  0  0  0  0  0  0  0  0  0  0
   18.6925    1.1184   -9.6052 C   0  0  0  0  0  0  0  0  0  0  0  0
   19.5004    0.1713  -10.3124 C   0  0  0  0  0  0  0  0  0  0  0  0
   19.0510   -1.1222  -10.4937 C   0  0  0  0  0  0  0  0  0  0  0  0
   19.7997   -2.0641  -11.1694 C   0  0  0  0  0  0  0  0  0  0  0  0
   19.3356   -3.3264  -11.3335 F   0  0  0  0  0  0  0  0  0  0  0  0
   21.0501   -1.7281  -11.6950 C   0  0  0  0  0  0  0  0  0  0  0  0
   21.5043   -0.4378  -11.5170 C   0  0  0  0  0  0  0  0  0  0  0  0
   22.7350   -0.1076  -12.0344 O   0  0  0  0  0  0  0  0  0  0  0  0
   23.8994   -0.1221  -11.2578 C   0  0  0  0  0  0  0  0  0  0  0  0
   23.8265   -0.3645   -9.9026 C   0  0  0  0  0  0  0  0  0  0  0  0
   24.9789   -0.3764   -9.1471 C   0  0  0  0  0  0  0  0  0  0  0  0
   26.2338   -0.1464   -9.7267 C   0  0  0  0  0  0  0  0  0  0  0  0
   27.6765   -0.1557   -8.7548 S   0  0  2  0  0  6  0  0  0  0  0  0
   27.3483    0.1049   -7.3050 O   0  0  0  0  0  0  0  0  0  0  0  0
   28.5643    0.9538   -9.2969 O   0  0  0  0  0  0  0  0  0  0  0  0
   28.5190   -1.6884   -8.9322 C   0  0  1  0  0  0  0  0  0  0  0  0
   29.7808   -1.6596   -8.3464 F   0  0  0  0  0  0  0  0  0  0  0  0
   27.8434   -2.7272   -8.2920 F   0  0  0  0  0  0  0  0  0  0  0  0
   26.3133    0.0947  -11.0726 C   0  0  0  0  0  0  0  0  0  0  0  0
   25.1416    0.1054  -11.8309 C   0  0  0  0  0  0  0  0  0  0  0  0
   25.5192    0.3929  -13.2354 C   0  0  0  0  0  0  0  0  0  0  0  0
   26.7694    1.2639  -13.0336 C   0  0  2  0  0  0  0  0  0  0  0  0
   26.3656    2.4532  -12.5000 F   0  0  0  0  0  0  0  0  0  0  0  0
   27.4958    1.3575  -14.1783 F   0  0  0  0  0  0  0  0  0  0  0  0
   27.4675    0.3753  -11.9783 C   0  0  2  0  0  0  0  0  0  0  0  0
   27.7980   -0.8047  -12.6520 O   0  0  0  0  0  0  0  0  0  0  0  0
   20.7416    0.4878  -10.8394 C   0  0  0  0  0  0  0  0  0  0  0  0
  1  2  3  0
  2  3  1  0
  3  4  2  0
  4  5  1  0
  5  6  1  0
  5  7  2  0
  7  8  1  0
  8  9  1  0
  9 10  1  0
 10 11  2  0
 11 12  1  0
 12 13  2  0
 14 13  1  6
 14 15  2  0
 14 16  2  0
 14 17  1  0
 17 18  1  1
 17 19  1  0
 13 20  1  0
 20 21  2  0
 22 21  1  6
 22 23  1  0
 23 24  1  1
 23 25  1  0
 23 26  1  0
 26 27  1  6
  8 28  2  0
 28  3  1  0
 21 10  1  0
 26 20  1  0
M  END
$$$$
