_rank11
     RDKit          3D

 28 30  0  0  0  0  0  0  0  0999 V2000
   17.2547   -3.7307  -11.0207 N   0  0  0  0  0  0  0  0  0  0  0  0
   17.9867   -2.8666  -10.9117 C   0  0  0  0  0  0  0  0  0  0  0  0
   18.9008   -1.7765  -10.7507 C   0  0  0  0  0  0  0  0  0  0  0  0
   18.5289   -0.6641  -10.0211 C   0  0  0  0  0  0  0  0  0  0  0  0
   19.3808    0.4068   -9.8430 C   0  0  0  0  0  0  0  0  0  0  0  0
   18.9912    1.4862   -9.1226 F   0  0  0  0  0  0  0  0  0  0  0  0
   20.6602    0.3927  -10.4047 C   0  0  0  0  0  0  0  0  0  0  0  0
   21.0373   -0.7155  -11.1344 C   0  0  0  0  0  0  0  0  0  0  0  0
   22.2966   -0.7289  -11.6870 O   0  0  0  0  0  0  0  0  0  0  0  0
   23.4526   -0.5706  -10.9137 C   0  0  0  0  0  0  0  0  0  0  0  0
   23.3897   -0.6820   -9.5411 C   0  0  0  0  0  0  0  0  0  0  0  0
   24.5337   -0.5243   -8.7891 C   0  0  0  0  0  0  0  0  0  0  0  0
   25.7699   -0.2513   -9.3898 C   0  0  0  0  0  0  0  0  0  0  0  0
   27.2014   -0.0456   -8.4230 S   0  0  2  0  0  6  0  0  0  0  0  0
   27.0945   -0.8233   -7.1341 O   0  0  0  0  0  0  0  0  0  0  0  0
   27.3078    1.4425   -8.1279 O   0  0  0  0  0  0  0  0  0  0  0  0
   28.6234   -0.5431   -9.3292 C   0  0  1  0  0  0  0  0  0  0  0  0
   28.6469   -1.9171   -9.5476 F   0  0  0  0  0  0  0  0  0  0  0  0
   28.6525    0.0289  -10.6009 F   0  0  0  0  0  0  0  0  0  0  0  0
   25.8393   -0.1398  -10.7532 C   0  0  0  0  0  0  0  0  0  0  0  0
   24.6763   -0.3005  -11.5077 C   0  0  0  0  0  0  0  0  0  0  0  0
   25.0395   -0.1244  -12.9342 C   0  0  0  0  0  0  0  0  0  0  0  0
   26.2131    0.8617  -12.8215 C   0  0  2  0  0  0  0  0  0  0  0  0
   25.7098    2.0613  -12.4090 F   0  0  0  0  0  0  0  0  0  0  0  0
   26.9378    0.8999  -13.9704 F   0  0  0  0  0  0  0  0  0  0  0  0
   26.9735    0.1427  -11.6832 C   0  0  2  0  0  0  0  0  0  0  0  0
   27.4040   -1.0674  -12.2361 O   0  0  0  0  0  0  0  0  0  0  0  0
   20.1720   -1.7744  -11.3006 C   0  0  0  0  0  0  0  0  0  0  0  0
  1  2  3  0
  2  3  1  0
  3  4  2  0
  4  5  1  0
  5  6  1  0
  5  7  2  0
  7  8  1  0
  8  9  1  0
  9 10  1  0
 10 11  2  0
 11 12  1  0
 12 13  2  0
 14 13  1  6
 14 15  2  0
 14 16  2  0
 14 17  1  0
 17 18  1  6
 17 19  1  0
 13 20  1  0
 20 21  2  0
 22 21  1  6
 22 23  1  0
 23 24  1  1
 23 25  1  0
 23 26  1  0
 26 27  1  6
  8 28  2  0
 28  3  1  0
 21 10  1  0
 26 20  1  0
M  END
$$$$
