_rank1
     RDKit          3D

 28 30  0  0  0  0  0  0  0  0999 V2000
   17.5753    1.9307   -8.8213 N   0  0  0  0  0  0  0  0  0  0  0  0
   18.2759    1.2073   -9.3505 C   0  0  0  0  0  0  0  0  0  0  0  0
   19.1382    0.2822  -10.0217 C   0  0  0  0  0  0  0  0  0  0  0  0
   18.7206   -1.0154  -10.2450 C   0  0  0  0  0  0  0  0  0  0  0  0
   19.5218   -1.9367  -10.8881 C   0  0  0  0  0  0  0  0  0  0  0  0
   19.0881   -3.2035  -11.0946 F   0  0  0  0  0  0  0  0  0  0  0  0
   20.7949   -1.5746  -11.3363 C   0  0  0  0  0  0  0  0  0  0  0  0
   21.2175   -0.2801  -11.1162 C   0  0  0  0  0  0  0  0  0  0  0  0
   22.4705    0.0756  -11.5576 O   0  0  0  0  0  0  0  0  0  0  0  0
   23.6275   -0.1979  -10.8188 C   0  0  0  0  0  0  0  0  0  0  0  0
   23.5339   -0.5609   -9.4922 C   0  0  0  0  0  0  0  0  0  0  0  0
   24.6792   -0.8279   -8.7739 C   0  0  0  0  0  0  0  0  0  0  0  0
   25.9474   -0.7390   -9.3631 C   0  0  0  0  0  0  0  0  0  0  0  0
   27.3825   -1.0704   -8.4374 S   0  0  2  0  0  6  0  0  0  0  0  0
   27.9692   -2.4078   -8.8176 O   0  0  0  0  0  0  0  0  0  0  0  0
   26.9561   -1.0830   -6.9775 O   0  0  0  0  0  0  0  0  0  0  0  0
   28.5638    0.2111   -8.6679 C   0  0  1  0  0  0  0  0  0  0  0  0
   28.9873    0.2966   -9.9905 F   0  0  0  0  0  0  0  0  0  0  0  0
   28.0299    1.4656   -8.3740 F   0  0  0  0  0  0  0  0  0  0  0  0
   26.0474   -0.3793  -10.6809 C   0  0  0  0  0  0  0  0  0  0  0  0
   24.8829   -0.1101  -11.4016 C   0  0  0  0  0  0  0  0  0  0  0  0
   25.2838    0.2547  -12.7814 C   0  0  0  0  0  0  0  0  0  0  0  0
   26.6581    0.8957  -12.5308 C   0  0  2  0  0  0  0  0  0  0  0  0
   26.4535    2.0737  -11.8729 F   0  0  0  0  0  0  0  0  0  0  0  0
   27.3761    0.9896  -13.6807 F   0  0  0  0  0  0  0  0  0  0  0  0
   27.2203   -0.1922  -11.5868 C   0  0  2  0  0  0  0  0  0  0  0  0
   27.3523   -1.3355  -12.3811 O   0  0  0  0  0  0  0  0  0  0  0  0
   20.4024    0.6246  -10.4723 C   0  0  0  0  0  0  0  0  0  0  0  0
  1  2  3  0
  2  3  1  0
  3  4  2  0
  4  5  1  0
  5  6  1  0
  5  7  2  0
  7  8  1  0
  8  9  1  0
  9 10  1  0
 10 11  2  0
 11 12  1  0
 12 13  2  0
 14 13  1  6
 14 15  2  0
 14 16  2  0
 14 17  1  0
 17 18  1  6
 17 19  1  0
 13 20  1  0
 20 21  2  0
 22 21  1  6
 22 23  1  0
 23 24  1  1
 23 25  1  0
 23 26  1  0
 26 27  1  6
  8 28  2  0
 28  3  1  0
 21 10  1  0
 26 20  1  0
M  END
$$$$
