_rank7
     RDKit          3D

 28 30  0  0  0  0  0  0  0  0999 V2000
   18.1956   -4.1871  -11.2450 N   0  0  0  0  0  0  0  0  0  0  0  0
   18.7198   -3.1913  -11.0780 C   0  0  0  0  0  0  0  0  0  0  0  0
   19.3852   -1.9453  -10.8447 C   0  0  0  0  0  0  0  0  0  0  0  0
   18.8018   -0.9908  -10.0344 C   0  0  0  0  0  0  0  0  0  0  0  0
   19.4109    0.2221   -9.7849 C   0  0  0  0  0  0  0  0  0  0  0  0
   18.8171    1.1413   -8.9860 F   0  0  0  0  0  0  0  0  0  0  0  0
   20.6518    0.5197  -10.3544 C   0  0  0  0  0  0  0  0  0  0  0  0
   21.2394   -0.4296  -11.1646 C   0  0  0  0  0  0  0  0  0  0  0  0
   22.4607   -0.1361  -11.7248 O   0  0  0  0  0  0  0  0  0  0  0  0
   23.6663   -0.3833  -11.0580 C   0  0  0  0  0  0  0  0  0  0  0  0
   23.6587   -0.8628   -9.7654 C   0  0  0  0  0  0  0  0  0  0  0  0
   24.8512   -1.1026   -9.1180 C   0  0  0  0  0  0  0  0  0  0  0  0
   26.0821   -0.8694   -9.7458 C   0  0  0  0  0  0  0  0  0  0  0  0
   27.5773   -1.1688   -8.9087 S   0  0  2  0  0  6  0  0  0  0  0  0
   28.5535   -1.8986   -9.7987 O   0  0  0  0  0  0  0  0  0  0  0  0
   27.2277   -2.0271   -7.7027 O   0  0  0  0  0  0  0  0  0  0  0  0
   28.2698    0.3442   -8.3413 C   0  0  1  0  0  0  0  0  0  0  0  0
   27.3226    1.3621   -8.2874 F   0  0  0  0  0  0  0  0  0  0  0  0
   28.7599    0.2330   -7.0402 F   0  0  0  0  0  0  0  0  0  0  0  0
   26.0968   -0.3934  -11.0300 C   0  0  0  0  0  0  0  0  0  0  0  0
   24.8847   -0.1527  -11.6789 C   0  0  0  0  0  0  0  0  0  0  0  0
   25.1961    0.3561  -13.0360 C   0  0  0  0  0  0  0  0  0  0  0  0
   26.5310    1.0752  -12.7837 C   0  0  2  0  0  0  0  0  0  0  0  0
   26.2724    2.1749  -12.0181 F   0  0  0  0  0  0  0  0  0  0  0  0
   27.1879    1.3193  -13.9479 F   0  0  0  0  0  0  0  0  0  0  0  0
   27.2113   -0.0431  -11.9607 C   0  0  2  0  0  0  0  0  0  0  0  0
   27.3889   -1.1022  -12.8564 O   0  0  0  0  0  0  0  0  0  0  0  0
   20.6150   -1.6344  -11.4012 C   0  0  0  0  0  0  0  0  0  0  0  0
  1  2  3  0
  2  3  1  0
  3  4  2  0
  4  5  1  0
  5  6  1  0
  5  7  2  0
  7  8  1  0
  8  9  1  0
  9 10  1  0
 10 11  2  0
 11 12  1  0
 12 13  2  0
 14 13  1  6
 14 15  2  0
 14 16  2  0
 14 17  1  0
 17 18  1  1
 17 19  1  0
 13 20  1  0
 20 21  2  0
 22 21  1  6
 22 23  1  0
 23 24  1  1
 23 25  1  0
 23 26  1  0
 26 27  1  6
  8 28  2  0
 28  3  1  0
 21 10  1  0
 26 20  1  0
M  END
$$$$
