_rank20
     RDKit          3D

 28 30  0  0  0  0  0  0  0  0999 V2000
   16.6716    1.4848   -9.9549 N   0  0  0  0  0  0  0  0  0  0  0  0
   17.6335    0.9054  -10.1375 C   0  0  0  0  0  0  0  0  0  0  0  0
   18.8509    0.1934  -10.3842 C   0  0  0  0  0  0  0  0  0  0  0  0
   18.8723   -1.1858  -10.3112 C   0  0  0  0  0  0  0  0  0  0  0  0
   20.0251   -1.9084  -10.5421 C   0  0  0  0  0  0  0  0  0  0  0  0
   20.0192   -3.2610  -10.4641 F   0  0  0  0  0  0  0  0  0  0  0  0
   21.2177   -1.2531  -10.8603 C   0  0  0  0  0  0  0  0  0  0  0  0
   21.2024    0.1243  -10.9346 C   0  0  0  0  0  0  0  0  0  0  0  0
   22.3764    0.7686  -11.2478 O   0  0  0  0  0  0  0  0  0  0  0  0
   23.5979    0.4226  -10.6583 C   0  0  0  0  0  0  0  0  0  0  0  0
   23.6308   -0.0834   -9.3763 C   0  0  0  0  0  0  0  0  0  0  0  0
   24.8387   -0.4207   -8.8052 C   0  0  0  0  0  0  0  0  0  0  0  0
   26.0446   -0.2611   -9.5007 C   0  0  0  0  0  0  0  0  0  0  0  0
   27.5606   -0.6834   -8.7594 S   0  0  2  0  0  6  0  0  0  0  0  0
   27.4381   -0.6922   -7.2552 O   0  0  0  0  0  0  0  0  0  0  0  0
   28.5600    0.3767   -9.1958 O   0  0  0  0  0  0  0  0  0  0  0  0
   28.1082   -2.2482   -9.3443 C   0  0  1  0  0  0  0  0  0  0  0  0
   27.1629   -2.8573  -10.1639 F   0  0  0  0  0  0  0  0  0  0  0  0
   29.2539   -2.1342  -10.1314 F   0  0  0  0  0  0  0  0  0  0  0  0
   26.0188    0.2407  -10.7749 C   0  0  0  0  0  0  0  0  0  0  0  0
   24.7916    0.5804  -11.3462 C   0  0  0  0  0  0  0  0  0  0  0  0
   25.0594    1.0957  -12.7103 C   0  0  0  0  0  0  0  0  0  0  0  0
   26.4547    1.7132  -12.5250 C   0  0  2  0  0  0  0  0  0  0  0  0
   26.3204    2.8113  -11.7259 F   0  0  0  0  0  0  0  0  0  0  0  0
   27.0588    1.9358  -13.7216 F   0  0  0  0  0  0  0  0  0  0  0  0
   27.0998    0.5319  -11.7639 C   0  0  2  0  0  0  0  0  0  0  0  0
   27.1488   -0.5172  -12.6871 O   0  0  0  0  0  0  0  0  0  0  0  0
   20.0411    0.8272  -10.7006 C   0  0  0  0  0  0  0  0  0  0  0  0
  1  2  3  0
  2  3  1  0
  3  4  2  0
  4  5  1  0
  5  6  1  0
  5  7  2  0
  7  8  1  0
  8  9  1  0
  9 10  1  0
 10 11  2  0
 11 12  1  0
 12 13  2  0
 14 13  1  6
 14 15  2  0
 14 16  2  0
 14 17  1  0
 17 18  1  6
 17 19  1  0
 13 20  1  0
 20 21  2  0
 22 21  1  6
 22 23  1  0
 23 24  1  1
 23 25  1  0
 23 26  1  0
 26 27  1  6
  8 28  2  0
 28  3  1  0
 21 10  1  0
 26 20  1  0
M  END
$$$$
