_rank9
     RDKit          3D

 28 30  0  0  0  0  0  0  0  0999 V2000
   18.5944   -3.9643  -10.5770 N   0  0  0  0  0  0  0  0  0  0  0  0
   18.9916   -2.8987  -10.5433 C   0  0  0  0  0  0  0  0  0  0  0  0
   19.4739   -1.5520  -10.4840 C   0  0  0  0  0  0  0  0  0  0  0  0
   18.7019   -0.5659   -9.9012 C   0  0  0  0  0  0  0  0  0  0  0  0
   19.1310    0.7434   -9.8245 C   0  0  0  0  0  0  0  0  0  0  0  0
   18.3542    1.6916   -9.2475 F   0  0  0  0  0  0  0  0  0  0  0  0
   20.3760    1.1101  -10.3424 C   0  0  0  0  0  0  0  0  0  0  0  0
   21.1515    0.1297  -10.9257 C   0  0  0  0  0  0  0  0  0  0  0  0
   22.3767    0.4912  -11.4352 O   0  0  0  0  0  0  0  0  0  0  0  0
   23.5789    0.1256  -10.8183 C   0  0  0  0  0  0  0  0  0  0  0  0
   23.5782   -0.3489   -9.5240 C   0  0  0  0  0  0  0  0  0  0  0  0
   24.7672   -0.7059   -8.9259 C   0  0  0  0  0  0  0  0  0  0  0  0
   25.9875   -0.5979   -9.6062 C   0  0  0  0  0  0  0  0  0  0  0  0
   27.4795   -1.0443   -8.8311 S   0  0  2  0  0  6  0  0  0  0  0  0
   28.4098   -1.7212   -9.8078 O   0  0  0  0  0  0  0  0  0  0  0  0
   27.1089   -2.0046   -7.7114 O   0  0  0  0  0  0  0  0  0  0  0  0
   28.2462    0.3724   -8.1271 C   0  0  1  0  0  0  0  0  0  0  0  0
   29.1937    0.0287   -7.1678 F   0  0  0  0  0  0  0  0  0  0  0  0
   28.9453    1.1104   -9.0821 F   0  0  0  0  0  0  0  0  0  0  0  0
   25.9951   -0.1276  -10.8926 C   0  0  0  0  0  0  0  0  0  0  0  0
   24.7868    0.2323  -11.4912 C   0  0  0  0  0  0  0  0  0  0  0  0
   25.0896    0.7056  -12.8631 C   0  0  0  0  0  0  0  0  0  0  0  0
   26.4991    1.2878  -12.6712 C   0  0  2  0  0  0  0  0  0  0  0  0
   26.3844    2.4089  -11.9015 F   0  0  0  0  0  0  0  0  0  0  0  0
   27.1272    1.4633  -13.8634 F   0  0  0  0  0  0  0  0  0  0  0  0
   27.0986    0.1082  -11.8713 C   0  0  2  0  0  0  0  0  0  0  0  0
   27.1313   -0.9646  -12.7677 O   0  0  0  0  0  0  0  0  0  0  0  0
   20.7050   -1.1717  -10.9923 C   0  0  0  0  0  0  0  0  0  0  0  0
  1  2  3  0
  2  3  1  0
  3  4  2  0
  4  5  1  0
  5  6  1  0
  5  7  2  0
  7  8  1  0
  8  9  1  0
  9 10  1  0
 10 11  2  0
 11 12  1  0
 12 13  2  0
 14 13  1  6
 14 15  2  0
 14 16  2  0
 14 17  1  0
 17 18  1  1
 17 19  1  0
 13 20  1  0
 20 21  2  0
 22 21  1  6
 22 23  1  0
 23 24  1  1
 23 25  1  0
 23 26  1  0
 26 27  1  6
  8 28  2  0
 28  3  1  0
 21 10  1  0
 26 20  1  0
M  END
$$$$
