_rank10
     RDKit          3D

 28 30  0  0  0  0  0  0  0  0999 V2000
   17.2500   -3.5971  -10.4602 N   0  0  0  0  0  0  0  0  0  0  0  0
   17.9670   -2.7150  -10.5056 C   0  0  0  0  0  0  0  0  0  0  0  0
   18.8714   -1.6056  -10.5379 C   0  0  0  0  0  0  0  0  0  0  0  0
   18.5185   -0.4081   -9.9467 C   0  0  0  0  0  0  0  0  0  0  0  0
   19.3619    0.6841   -9.9564 C   0  0  0  0  0  0  0  0  0  0  0  0
   18.9914    1.8474   -9.3690 F   0  0  0  0  0  0  0  0  0  0  0  0
   20.6130    0.6049  -10.5738 C   0  0  0  0  0  0  0  0  0  0  0  0
   20.9711   -0.5884  -11.1660 C   0  0  0  0  0  0  0  0  0  0  0  0
   22.2025   -0.6657  -11.7735 O   0  0  0  0  0  0  0  0  0  0  0  0
   23.3962   -0.6724  -11.0425 C   0  0  0  0  0  0  0  0  0  0  0  0
   23.4070   -1.1114   -9.7357 C   0  0  0  0  0  0  0  0  0  0  0  0
   24.5875   -1.1138   -9.0249 C   0  0  0  0  0  0  0  0  0  0  0  0
   25.7876   -0.6775   -9.6020 C   0  0  0  0  0  0  0  0  0  0  0  0
   27.2662   -0.6786   -8.6855 S   0  0  2  0  0  6  0  0  0  0  0  0
   28.3797   -1.3348   -9.4646 O   0  0  0  0  0  0  0  0  0  0  0  0
   26.9819   -1.4668   -7.4162 O   0  0  0  0  0  0  0  0  0  0  0  0
   27.7071    0.9642   -8.2413 C   0  0  1  0  0  0  0  0  0  0  0  0
   28.3017    1.0217   -6.9846 F   0  0  0  0  0  0  0  0  0  0  0  0
   28.6513    1.5009   -9.1163 F   0  0  0  0  0  0  0  0  0  0  0  0
   25.7838   -0.2404  -10.9000 C   0  0  0  0  0  0  0  0  0  0  0  0
   24.5841   -0.2407  -11.6131 C   0  0  0  0  0  0  0  0  0  0  0  0
   24.8697    0.2807  -12.9712 C   0  0  0  0  0  0  0  0  0  0  0  0
   26.0382    1.2364  -12.6819 C   0  0  2  0  0  0  0  0  0  0  0  0
   25.5461    2.2904  -11.9684 F   0  0  0  0  0  0  0  0  0  0  0  0
   26.7008    1.5653  -13.8218 F   0  0  0  0  0  0  0  0  0  0  0  0
   26.8645    0.2820  -11.7891 C   0  0  2  0  0  0  0  0  0  0  0  0
   27.2767   -0.7502  -12.6376 O   0  0  0  0  0  0  0  0  0  0  0  0
   20.1147   -1.6671  -11.1454 C   0  0  0  0  0  0  0  0  0  0  0  0
  1  2  3  0
  2  3  1  0
  3  4  2  0
  4  5  1  0
  5  6  1  0
  5  7  2  0
  7  8  1  0
  8  9  1  0
  9 10  1  0
 10 11  2  0
 11 12  1  0
 12 13  2  0
 14 13  1  6
 14 15  2  0
 14 16  2  0
 14 17  1  0
 17 18  1  1
 17 19  1  0
 13 20  1  0
 20 21  2  0
 22 21  1  6
 22 23  1  0
 23 24  1  1
 23 25  1  0
 23 26  1  0
 26 27  1  6
  8 28  2  0
 28  3  1  0
 21 10  1  0
 26 20  1  0
M  END
$$$$
