_rank4
     RDKit          3D

 28 30  0  0  0  0  0  0  0  0999 V2000
   18.2130    1.9885   -8.5990 N   0  0  0  0  0  0  0  0  0  0  0  0
   18.7534    1.1608   -9.1621 C   0  0  0  0  0  0  0  0  0  0  0  0
   19.4544    0.1243   -9.8581 C   0  0  0  0  0  0  0  0  0  0  0  0
   18.8848   -1.1271   -9.9908 C   0  0  0  0  0  0  0  0  0  0  0  0
   19.5280   -2.1521  -10.6541 C   0  0  0  0  0  0  0  0  0  0  0  0
   18.9471   -3.3706  -10.7702 F   0  0  0  0  0  0  0  0  0  0  0  0
   20.7906   -1.9468  -11.2166 C   0  0  0  0  0  0  0  0  0  0  0  0
   21.3645   -0.6991  -11.0872 C   0  0  0  0  0  0  0  0  0  0  0  0
   22.6071   -0.4977  -11.6410 O   0  0  0  0  0  0  0  0  0  0  0  0
   23.7610   -0.3707  -10.8590 C   0  0  0  0  0  0  0  0  0  0  0  0
   23.6666   -0.3325   -9.4842 C   0  0  0  0  0  0  0  0  0  0  0  0
   24.8088   -0.2071   -8.7235 C   0  0  0  0  0  0  0  0  0  0  0  0
   26.0748   -0.1168   -9.3175 C   0  0  0  0  0  0  0  0  0  0  0  0
   27.5045    0.0509   -8.3409 S   0  0  2  0  0  6  0  0  0  0  0  0
   27.1782    0.7034   -7.0198 O   0  0  0  0  0  0  0  0  0  0  0  0
   28.4632    0.9264   -9.1331 O   0  0  0  0  0  0  0  0  0  0  0  0
   28.2546   -1.5186   -8.0868 C   0  0  1  0  0  0  0  0  0  0  0  0
   27.6252   -2.2386   -7.0760 F   0  0  0  0  0  0  0  0  0  0  0  0
   28.1627   -2.3254   -9.2207 F   0  0  0  0  0  0  0  0  0  0  0  0
   26.1756   -0.1546  -10.6829 C   0  0  0  0  0  0  0  0  0  0  0  0
   25.0141   -0.2814  -11.4463 C   0  0  0  0  0  0  0  0  0  0  0  0
   25.4145   -0.2897  -12.8737 C   0  0  0  0  0  0  0  0  0  0  0  0
   26.6766    0.5867  -12.8324 C   0  0  2  0  0  0  0  0  0  0  0  0
   26.2861    1.8650  -12.5570 F   0  0  0  0  0  0  0  0  0  0  0  0
   27.4191    0.4363  -13.9605 F   0  0  0  0  0  0  0  0  0  0  0  0
   27.3460   -0.0793  -11.6080 C   0  0  2  0  0  0  0  0  0  0  0  0
   27.6652   -1.3758  -12.0237 O   0  0  0  0  0  0  0  0  0  0  0  0
   20.7059    0.3110  -10.4213 C   0  0  0  0  0  0  0  0  0  0  0  0
  1  2  3  0
  2  3  1  0
  3  4  2  0
  4  5  1  0
  5  6  1  0
  5  7  2  0
  7  8  1  0
  8  9  1  0
  9 10  1  0
 10 11  2  0
 11 12  1  0
 12 13  2  0
 14 13  1  6
 14 15  2  0
 14 16  2  0
 14 17  1  0
 17 18  1  1
 17 19  1  0
 13 20  1  0
 20 21  2  0
 22 21  1  6
 22 23  1  0
 23 24  1  1
 23 25  1  0
 23 26  1  0
 26 27  1  6
  8 28  2  0
 28  3  1  0
 21 10  1  0
 26 20  1  0
M  END
$$$$
