_rank19
     RDKit          3D

 28 30  0  0  0  0  0  0  0  0999 V2000
   19.3193    0.4873   -7.3928 N   0  0  0  0  0  0  0  0  0  0  0  0
   19.5547    0.2081   -8.4703 C   0  0  0  0  0  0  0  0  0  0  0  0
   19.8709   -0.1561   -9.8183 C   0  0  0  0  0  0  0  0  0  0  0  0
   18.8588   -0.4552  -10.7095 C   0  0  0  0  0  0  0  0  0  0  0  0
   19.1223   -0.8104  -12.0166 C   0  0  0  0  0  0  0  0  0  0  0  0
   18.1108   -1.0991  -12.8707 F   0  0  0  0  0  0  0  0  0  0  0  0
   20.4394   -0.8775  -12.4786 C   0  0  0  0  0  0  0  0  0  0  0  0
   21.4545   -0.5799  -11.5932 C   0  0  0  0  0  0  0  0  0  0  0  0
   22.7505   -0.6461  -12.0485 O   0  0  0  0  0  0  0  0  0  0  0  0
   23.8492   -0.4494  -11.2038 C   0  0  0  0  0  0  0  0  0  0  0  0
   23.6681   -0.3563   -9.8403 C   0  0  0  0  0  0  0  0  0  0  0  0
   24.7564   -0.1625   -9.0176 C   0  0  0  0  0  0  0  0  0  0  0  0
   26.0538   -0.0569   -9.5365 C   0  0  0  0  0  0  0  0  0  0  0  0
   27.4143    0.1976   -8.4828 S   0  0  2  0  0  6  0  0  0  0  0  0
   26.9550    0.5007   -7.0775 O   0  0  0  0  0  0  0  0  0  0  0  0
   28.1784    1.3840   -9.0499 O   0  0  0  0  0  0  0  0  0  0  0  0
   28.4673   -1.2101   -8.4990 C   0  0  1  0  0  0  0  0  0  0  0  0
   27.7927   -2.3689   -8.1270 F   0  0  0  0  0  0  0  0  0  0  0  0
   28.9627   -1.4707   -9.7765 F   0  0  0  0  0  0  0  0  0  0  0  0
   26.2407   -0.1489  -10.8903 C   0  0  0  0  0  0  0  0  0  0  0  0
   25.1333   -0.3449  -11.7169 C   0  0  0  0  0  0  0  0  0  0  0  0
   25.6221   -0.4005  -13.1154 C   0  0  0  0  0  0  0  0  0  0  0  0
   26.8529    0.5167  -13.0357 C   0  0  2  0  0  0  0  0  0  0  0  0
   26.4086    1.7923  -12.8413 F   0  0  0  0  0  0  0  0  0  0  0  0
   27.6684    0.3427  -14.1087 F   0  0  0  0  0  0  0  0  0  0  0  0
   27.4638   -0.0753  -11.7446 C   0  0  2  0  0  0  0  0  0  0  0  0
   27.8462   -1.3773  -12.0825 O   0  0  0  0  0  0  0  0  0  0  0  0
   21.1705   -0.2274  -10.2923 C   0  0  0  0  0  0  0  0  0  0  0  0
  1  2  3  0
  2  3  1  0
  3  4  2  0
  4  5  1  0
  5  6  1  0
  5  7  2  0
  7  8  1  0
  8  9  1  0
  9 10  1  0
 10 11  2  0
 11 12  1  0
 12 13  2  0
 14 13  1  6
 14 15  2  0
 14 16  2  0
 14 17  1  0
 17 18  1  6
 17 19  1  0
 13 20  1  0
 20 21  2  0
 22 21  1  6
 22 23  1  0
 23 24  1  1
 23 25  1  0
 23 26  1  0
 26 27  1  6
  8 28  2  0
 28  3  1  0
 21 10  1  0
 26 20  1  0
M  END
$$$$
