_rank12
     RDKit          3D

 28 30  0  0  0  0  0  0  0  0999 V2000
   17.6167   -3.8520  -11.4013 N   0  0  0  0  0  0  0  0  0  0  0  0
   18.2952   -2.9592  -11.2093 C   0  0  0  0  0  0  0  0  0  0  0  0
   19.1512   -1.8323  -10.9924 C   0  0  0  0  0  0  0  0  0  0  0  0
   18.7315   -0.7894  -10.1896 C   0  0  0  0  0  0  0  0  0  0  0  0
   19.5268    0.3139   -9.9559 C   0  0  0  0  0  0  0  0  0  0  0  0
   19.0911    1.3235   -9.1643 F   0  0  0  0  0  0  0  0  0  0  0  0
   20.7956    0.4053  -10.5342 C   0  0  0  0  0  0  0  0  0  0  0  0
   21.2203   -0.6331  -11.3368 C   0  0  0  0  0  0  0  0  0  0  0  0
   22.4691   -0.5426  -11.9057 O   0  0  0  0  0  0  0  0  0  0  0  0
   23.6339   -0.4391  -11.1363 C   0  0  0  0  0  0  0  0  0  0  0  0
   23.5888   -0.6595   -9.7762 C   0  0  0  0  0  0  0  0  0  0  0  0
   24.7412   -0.5549   -9.0279 C   0  0  0  0  0  0  0  0  0  0  0  0
   25.9684   -0.2274   -9.6199 C   0  0  0  0  0  0  0  0  0  0  0  0
   27.4108   -0.0903   -8.6572 S   0  0  2  0  0  6  0  0  0  0  0  0
   27.0672    0.0991   -7.2000 O   0  0  0  0  0  0  0  0  0  0  0  0
   28.1595    1.1261   -9.1797 O   0  0  0  0  0  0  0  0  0  0  0  0
   28.4236   -1.5109   -8.8742 C   0  0  1  0  0  0  0  0  0  0  0  0
   28.5855   -2.2205   -7.6882 F   0  0  0  0  0  0  0  0  0  0  0  0
   27.8563   -2.4189   -9.7679 F   0  0  0  0  0  0  0  0  0  0  0  0
   26.0202   -0.0076  -10.9709 C   0  0  0  0  0  0  0  0  0  0  0  0
   24.8486   -0.1151  -11.7217 C   0  0  0  0  0  0  0  0  0  0  0  0
   25.1930    0.1760  -13.1340 C   0  0  0  0  0  0  0  0  0  0  0  0
   26.3627    1.1573  -12.9574 C   0  0  2  0  0  0  0  0  0  0  0  0
   25.8584    2.3171  -12.4448 F   0  0  0  0  0  0  0  0  0  0  0  0
   27.0728    1.2911  -14.1083 F   0  0  0  0  0  0  0  0  0  0  0  0
   27.1411    0.3549  -11.8892 C   0  0  2  0  0  0  0  0  0  0  0  0
   27.5709   -0.8048  -12.5416 O   0  0  0  0  0  0  0  0  0  0  0  0
   20.4112   -1.7259  -11.5577 C   0  0  0  0  0  0  0  0  0  0  0  0
  1  2  3  0
  2  3  1  0
  3  4  2  0
  4  5  1  0
  5  6  1  0
  5  7  2  0
  7  8  1  0
  8  9  1  0
  9 10  1  0
 10 11  2  0
 11 12  1  0
 12 13  2  0
 14 13  1  6
 14 15  2  0
 14 16  2  0
 14 17  1  0
 17 18  1  1
 17 19  1  0
 13 20  1  0
 20 21  2  0
 22 21  1  6
 22 23  1  0
 23 24  1  1
 23 25  1  0
 23 26  1  0
 26 27  1  6
  8 28  2  0
 28  3  1  0
 21 10  1  0
 26 20  1  0
M  END
$$$$
