_rank6
     RDKit          3D

 28 30  0  0  0  0  0  0  0  0999 V2000
   18.3309   -4.0112  -11.1362 N   0  0  0  0  0  0  0  0  0  0  0  0
   18.7397   -2.9570  -11.0101 C   0  0  0  0  0  0  0  0  0  0  0  0
   19.2719   -1.6393  -10.8363 C   0  0  0  0  0  0  0  0  0  0  0  0
   18.5434   -0.6835  -10.1551 C   0  0  0  0  0  0  0  0  0  0  0  0
   19.0213    0.5973   -9.9665 C   0  0  0  0  0  0  0  0  0  0  0  0
   18.2866    1.5161   -9.2945 F   0  0  0  0  0  0  0  0  0  0  0  0
   20.2729    0.9651  -10.4675 C   0  0  0  0  0  0  0  0  0  0  0  0
   21.0050    0.0149  -11.1486 C   0  0  0  0  0  0  0  0  0  0  0  0
   22.2367    0.3774  -11.6414 O   0  0  0  0  0  0  0  0  0  0  0  0
   23.4271    0.0808  -10.9674 C   0  0  0  0  0  0  0  0  0  0  0  0
   23.4013   -0.2625   -9.6324 C   0  0  0  0  0  0  0  0  0  0  0  0
   24.5789   -0.5526   -8.9782 C   0  0  0  0  0  0  0  0  0  0  0  0
   25.8125   -0.5071   -9.6414 C   0  0  0  0  0  0  0  0  0  0  0  0
   27.2896   -0.8670   -8.7960 S   0  0  2  0  0  6  0  0  0  0  0  0
   28.0894   -1.9121   -9.5346 O   0  0  0  0  0  0  0  0  0  0  0  0
   26.8822   -1.3914   -7.4277 O   0  0  0  0  0  0  0  0  0  0  0  0
   28.2376    0.5975   -8.5783 C   0  0  1  0  0  0  0  0  0  0  0  0
   29.1288    0.4873   -7.5154 F   0  0  0  0  0  0  0  0  0  0  0  0
   29.0308    0.8705   -9.6925 F   0  0  0  0  0  0  0  0  0  0  0  0
   25.8450   -0.1671  -10.9678 C   0  0  0  0  0  0  0  0  0  0  0  0
   24.6481    0.1257  -11.6233 C   0  0  0  0  0  0  0  0  0  0  0  0
   24.9774    0.4614  -13.0292 C   0  0  0  0  0  0  0  0  0  0  0  0
   26.3812    1.0666  -12.8682 C   0  0  2  0  0  0  0  0  0  0  0  0
   26.2478    2.2581  -12.2165 F   0  0  0  0  0  0  0  0  0  0  0  0
   27.0329    1.1255  -14.0591 F   0  0  0  0  0  0  0  0  0  0  0  0
   26.9675   -0.0247  -11.9429 C   0  0  2  0  0  0  0  0  0  0  0  0
   27.0214   -1.1812  -12.7271 O   0  0  0  0  0  0  0  0  0  0  0  0
   20.5102   -1.2584  -11.3262 C   0  0  0  0  0  0  0  0  0  0  0  0
  1  2  3  0
  2  3  1  0
  3  4  2  0
  4  5  1  0
  5  6  1  0
  5  7  2  0
  7  8  1  0
  8  9  1  0
  9 10  1  0
 10 11  2  0
 11 12  1  0
 12 13  2  0
 14 13  1  6
 14 15  2  0
 14 16  2  0
 14 17  1  0
 17 18  1  1
 17 19  1  0
 13 20  1  0
 20 21  2  0
 22 21  1  6
 22 23  1  0
 23 24  1  1
 23 25  1  0
 23 26  1  0
 26 27  1  6
  8 28  2  0
 28  3  1  0
 21 10  1  0
 26 20  1  0
M  END
$$$$
