_rank20
     RDKit          3D

 27 29  0  0  0  0  0  0  0  0999 V2000
   27.0065   -2.8739   -8.1377 C   0  0  0  0  0  0  0  0  0  0  0  0
   28.2779   -2.1290   -8.3724 C   0  0  0  0  0  0  0  0  0  0  0  0
   28.0459   -0.4048   -8.6481 S   0  0  2  0  0  6  0  0  0  0  0  0
   29.1826    0.1139   -9.4746 O   0  0  0  0  0  0  0  0  0  0  0  0
   28.1473    0.2806   -7.3060 O   0  0  0  0  0  0  0  0  0  0  0  0
   26.5355   -0.0382   -9.4291 C   0  0  0  0  0  0  0  0  0  0  0  0
   25.3618   -0.0780   -8.7118 C   0  0  0  0  0  0  0  0  0  0  0  0
   24.1354    0.2138   -9.3198 C   0  0  0  0  0  0  0  0  0  0  0  0
   24.0878    0.5434  -10.6397 C   0  0  0  0  0  0  0  0  0  0  0  0
   22.8520    0.8381  -11.2554 O   0  0  0  0  0  0  0  0  0  0  0  0
   21.7268    0.1354  -10.8554 C   0  0  0  0  0  0  0  0  0  0  0  0
   21.6860   -1.2523  -10.8099 C   0  0  0  0  0  0  0  0  0  0  0  0
   20.5476   -1.9265  -10.4062 C   0  0  0  0  0  0  0  0  0  0  0  0
   20.4831   -3.2747  -10.3535 F   0  0  0  0  0  0  0  0  0  0  0  0
   19.4355   -1.1989  -10.0433 C   0  0  0  0  0  0  0  0  0  0  0  0
   19.4304    0.1803  -10.0729 C   0  0  0  0  0  0  0  0  0  0  0  0
   18.2516    0.9036   -9.6871 C   0  0  0  0  0  0  0  0  0  0  0  0
   17.3015    1.4745   -9.3600 N   0  0  0  0  0  0  0  0  0  0  0  0
   20.5920    0.8194  -10.4838 C   0  0  0  0  0  0  0  0  0  0  0  0
   25.2563    0.5849  -11.3617 C   0  0  0  0  0  0  0  0  0  0  0  0
   26.4578    0.2967  -10.7565 C   0  0  0  0  0  0  0  0  0  0  0  0
   27.5316    0.4261  -11.7976 C   0  0  2  0  0  0  0  0  0  0  0  0
   28.6967    0.9512  -11.3101 O   0  0  0  0  0  0  0  0  0  0  0  0
   26.9107    1.4480  -12.7274 C   0  0  1  0  0  0  0  0  0  0  0  0
   26.8294    2.6910  -12.1202 F   0  0  0  0  0  0  0  0  0  0  0  0
   27.5022    1.4935  -13.9525 F   0  0  0  0  0  0  0  0  0  0  0  0
   25.4737    0.9127  -12.7970 C   0  0  0  0  0  0  0  0  0  0  0  0
  2  1  1  6
  2  3  1  0
  3  4  2  0
  3  5  2  0
  3  6  1  6
  6  7  2  0
  7  8  1  0
  8  9  2  0
  9 10  1  0
 10 11  1  0
 11 12  2  0
 12 13  1  0
 13 14  1  0
 13 15  2  0
 15 16  1  0
 16 17  1  0
 17 18  3  0
 16 19  2  0
  9 20  1  0
 20 21  2  0
 21 22  1  0
 22 23  1  1
 22 24  1  0
 24 25  1  1
 24 26  1  0
 24 27  1  0
 21  6  1  0
 19 11  1  0
 27 20  1  6
M  END
$$$$
