_rank16
     RDKit          3D

 27 29  0  0  0  0  0  0  0  0999 V2000
   26.7892   -1.1768   -6.8551 C   0  0  0  0  0  0  0  0  0  0  0  0
   27.7527   -1.6100   -7.9090 C   0  0  0  0  0  0  0  0  0  0  0  0
   27.8455   -0.5058   -9.2781 S   0  0  2  0  0  6  0  0  0  0  0  0
   28.8641   -1.0185  -10.2497 O   0  0  0  0  0  0  0  0  0  0  0  0
   28.3771    0.8087   -8.7576 O   0  0  0  0  0  0  0  0  0  0  0  0
   26.3191   -0.2920  -10.0843 C   0  0  0  0  0  0  0  0  0  0  0  0
   25.1451   -0.5604   -9.4185 C   0  0  0  0  0  0  0  0  0  0  0  0
   23.9058   -0.3950  -10.0474 C   0  0  0  0  0  0  0  0  0  0  0  0
   23.8458    0.0372  -11.3370 C   0  0  0  0  0  0  0  0  0  0  0  0
   22.5970    0.2049  -11.9737 O   0  0  0  0  0  0  0  0  0  0  0  0
   21.4478   -0.1486  -11.2849 C   0  0  0  0  0  0  0  0  0  0  0  0
   20.7890    0.7234  -10.4277 C   0  0  0  0  0  0  0  0  0  0  0  0
   19.6431    0.3419   -9.7533 C   0  0  0  0  0  0  0  0  0  0  0  0
   18.9846    1.1713   -8.9147 F   0  0  0  0  0  0  0  0  0  0  0  0
   19.1516   -0.9312   -9.9415 C   0  0  0  0  0  0  0  0  0  0  0  0
   19.7726   -1.8309  -10.7830 C   0  0  0  0  0  0  0  0  0  0  0  0
   19.2300   -3.1492  -10.9532 C   0  0  0  0  0  0  0  0  0  0  0  0
   18.7971   -4.2092  -11.1099 N   0  0  0  0  0  0  0  0  0  0  0  0
   20.9199   -1.4098  -11.4413 C   0  0  0  0  0  0  0  0  0  0  0  0
   25.0145    0.3070  -12.0074 C   0  0  0  0  0  0  0  0  0  0  0  0
   26.2287    0.1418  -11.3819 C   0  0  0  0  0  0  0  0  0  0  0  0
   27.2994    0.5122  -12.3668 C   0  0  2  0  0  0  0  0  0  0  0  0
   28.3626    1.1539  -11.7934 O   0  0  0  0  0  0  0  0  0  0  0  0
   26.5615    1.5116  -13.2333 C   0  0  1  0  0  0  0  0  0  0  0  0
   26.2845    2.6733  -12.5302 F   0  0  0  0  0  0  0  0  0  0  0  0
   27.1723    1.7466  -14.4268 F   0  0  0  0  0  0  0  0  0  0  0  0
   25.2198    0.7851  -13.4018 C   0  0  0  0  0  0  0  0  0  0  0  0
  2  1  1  6
  2  3  1  0
  3  4  2  0
  3  5  2  0
  3  6  1  6
  6  7  2  0
  7  8  1  0
  8  9  2  0
  9 10  1  0
 10 11  1  0
 11 12  2  0
 12 13  1  0
 13 14  1  0
 13 15  2  0
 15 16  1  0
 16 17  1  0
 17 18  3  0
 16 19  2  0
  9 20  1  0
 20 21  2  0
 21 22  1  0
 22 23  1  1
 22 24  1  0
 24 25  1  1
 24 26  1  0
 24 27  1  0
 21  6  1  0
 19 11  1  0
 27 20  1  6
M  END
$$$$
