_rank7
     RDKit          3D

 27 29  0  0  0  0  0  0  0  0999 V2000
   27.2043    1.1054   -7.4078 C   0  0  0  0  0  0  0  0  0  0  0  0
   28.2008    0.4328   -8.2917 C   0  0  0  0  0  0  0  0  0  0  0  0
   27.6072   -1.0571   -9.0198 S   0  0  2  0  0  6  0  0  0  0  0  0
   27.4296   -2.0871   -7.9465 O   0  0  0  0  0  0  0  0  0  0  0  0
   28.6953   -1.5744   -9.9309 O   0  0  0  0  0  0  0  0  0  0  0  0
   26.1124   -0.8437   -9.8833 C   0  0  0  0  0  0  0  0  0  0  0  0
   24.9143   -1.1173   -9.2643 C   0  0  0  0  0  0  0  0  0  0  0  0
   23.6998   -0.9523   -9.9399 C   0  0  0  0  0  0  0  0  0  0  0  0
   23.6884   -0.5151  -11.2291 C   0  0  0  0  0  0  0  0  0  0  0  0
   22.4646   -0.3478  -11.9128 O   0  0  0  0  0  0  0  0  0  0  0  0
   21.2828   -0.5184  -11.2100 C   0  0  0  0  0  0  0  0  0  0  0  0
   20.8971    0.3241  -10.1752 C   0  0  0  0  0  0  0  0  0  0  0  0
   19.7107    0.1285   -9.4914 C   0  0  0  0  0  0  0  0  0  0  0  0
   19.3138    0.9337   -8.4820 F   0  0  0  0  0  0  0  0  0  0  0  0
   18.9004   -0.9261   -9.8505 C   0  0  0  0  0  0  0  0  0  0  0  0
   19.2429   -1.7883  -10.8717 C   0  0  0  0  0  0  0  0  0  0  0  0
   18.3720   -2.8763  -11.2168 C   0  0  0  0  0  0  0  0  0  0  0  0
   17.6777   -3.7623  -11.4787 N   0  0  0  0  0  0  0  0  0  0  0  0
   20.4413   -1.5583  -11.5332 C   0  0  0  0  0  0  0  0  0  0  0  0
   24.8814   -0.2401  -11.8530 C   0  0  0  0  0  0  0  0  0  0  0  0
   26.0710   -0.4050  -11.1818 C   0  0  0  0  0  0  0  0  0  0  0  0
   27.1780   -0.0283  -12.1233 C   0  0  2  0  0  0  0  0  0  0  0  0
   28.2168    0.6135  -11.5069 O   0  0  0  0  0  0  0  0  0  0  0  0
   26.4716    0.9728  -13.0137 C   0  0  1  0  0  0  0  0  0  0  0  0
   26.1649    2.1311  -12.3174 F   0  0  0  0  0  0  0  0  0  0  0  0
   27.1273    1.2138  -14.1820 F   0  0  0  0  0  0  0  0  0  0  0  0
   25.1391    0.2439  -13.2366 C   0  0  0  0  0  0  0  0  0  0  0  0
  2  1  1  6
  2  3  1  0
  3  4  2  0
  3  5  2  0
  3  6  1  6
  6  7  2  0
  7  8  1  0
  8  9  2  0
  9 10  1  0
 10 11  1  0
 11 12  2  0
 12 13  1  0
 13 14  1  0
 13 15  2  0
 15 16  1  0
 16 17  1  0
 17 18  3  0
 16 19  2  0
  9 20  1  0
 20 21  2  0
 21 22  1  0
 22 23  1  1
 22 24  1  0
 24 25  1  1
 24 26  1  0
 24 27  1  0
 21  6  1  0
 19 11  1  0
 27 20  1  6
M  END
$$$$
