_rank14
     RDKit          3D

 27 29  0  0  0  0  0  0  0  0999 V2000
   27.3824   -2.7088   -8.9643 C   0  0  0  0  0  0  0  0  0  0  0  0
   28.1072   -1.6900   -8.1497 C   0  0  0  0  0  0  0  0  0  0  0  0
   27.5377   -0.0434   -8.4083 S   0  0  2  0  0  6  0  0  0  0  0  0
   28.6273    0.7527   -9.0590 O   0  0  0  0  0  0  0  0  0  0  0  0
   27.3151    0.5720   -7.0471 O   0  0  0  0  0  0  0  0  0  0  0  0
   26.0949    0.0330   -9.3768 C   0  0  0  0  0  0  0  0  0  0  0  0
   24.8585   -0.0531   -8.7787 C   0  0  0  0  0  0  0  0  0  0  0  0
   23.6847    0.0065   -9.5384 C   0  0  0  0  0  0  0  0  0  0  0  0
   23.7517    0.1517  -10.8903 C   0  0  0  0  0  0  0  0  0  0  0  0
   22.5691    0.2121  -11.6589 O   0  0  0  0  0  0  0  0  0  0  0  0
   21.3631   -0.0878  -11.0461 C   0  0  0  0  0  0  0  0  0  0  0  0
   20.6458    0.8433  -10.3059 C   0  0  0  0  0  0  0  0  0  0  0  0
   19.4439    0.5144   -9.7053 C   0  0  0  0  0  0  0  0  0  0  0  0
   18.7281    1.4018   -8.9807 F   0  0  0  0  0  0  0  0  0  0  0  0
   18.9550   -0.7654   -9.8494 C   0  0  0  0  0  0  0  0  0  0  0  0
   19.6330   -1.7228  -10.5754 C   0  0  0  0  0  0  0  0  0  0  0  0
   19.0911   -3.0462  -10.7029 C   0  0  0  0  0  0  0  0  0  0  0  0
   18.6618   -4.1160  -10.7871 N   0  0  0  0  0  0  0  0  0  0  0  0
   20.8353   -1.3534  -11.1624 C   0  0  0  0  0  0  0  0  0  0  0  0
   24.9832    0.2383  -11.4937 C   0  0  0  0  0  0  0  0  0  0  0  0
   26.1324    0.1789  -10.7397 C   0  0  0  0  0  0  0  0  0  0  0  0
   27.2971    0.2986  -11.6794 C   0  0  2  0  0  0  0  0  0  0  0  0
   28.3376    1.0195  -11.1613 O   0  0  0  0  0  0  0  0  0  0  0  0
   26.6805    1.1072  -12.8019 C   0  0  1  0  0  0  0  0  0  0  0  0
   26.4002    2.4004  -12.3900 F   0  0  0  0  0  0  0  0  0  0  0  0
   27.3983    1.0623  -13.9575 F   0  0  0  0  0  0  0  0  0  0  0  0
   25.3252    0.3985  -12.9333 C   0  0  0  0  0  0  0  0  0  0  0  0
  2  1  1  6
  2  3  1  0
  3  4  2  0
  3  5  2  0
  3  6  1  6
  6  7  2  0
  7  8  1  0
  8  9  2  0
  9 10  1  0
 10 11  1  0
 11 12  2  0
 12 13  1  0
 13 14  1  0
 13 15  2  0
 15 16  1  0
 16 17  1  0
 17 18  3  0
 16 19  2  0
  9 20  1  0
 20 21  2  0
 21 22  1  0
 22 23  1  1
 22 24  1  0
 24 25  1  1
 24 26  1  0
 24 27  1  0
 21  6  1  0
 19 11  1  0
 27 20  1  6
M  END
$$$$
