_rank13
     RDKit          3D

 27 29  0  0  0  0  0  0  0  0999 V2000
   27.9656   -2.8759   -8.5513 C   0  0  0  0  0  0  0  0  0  0  0  0
   27.6632   -1.7816   -7.5830 C   0  0  0  0  0  0  0  0  0  0  0  0
   27.3643   -0.2236   -8.3484 S   0  0  2  0  0  6  0  0  0  0  0  0
   28.5558    0.1493   -9.1764 O   0  0  0  0  0  0  0  0  0  0  0  0
   27.2718    0.8057   -7.2469 O   0  0  0  0  0  0  0  0  0  0  0  0
   25.9342   -0.2156   -9.3386 C   0  0  0  0  0  0  0  0  0  0  0  0
   24.7064   -0.4827   -8.7774 C   0  0  0  0  0  0  0  0  0  0  0  0
   23.5428   -0.4811   -9.5550 C   0  0  0  0  0  0  0  0  0  0  0  0
   23.6116   -0.2130  -10.8879 C   0  0  0  0  0  0  0  0  0  0  0  0
   22.4393   -0.2108  -11.6746 O   0  0  0  0  0  0  0  0  0  0  0  0
   21.2148   -0.3519  -11.0417 C   0  0  0  0  0  0  0  0  0  0  0  0
   20.5852    0.6971  -10.3840 C   0  0  0  0  0  0  0  0  0  0  0  0
   19.3621    0.5259   -9.7608 C   0  0  0  0  0  0  0  0  0  0  0  0
   18.7300    1.5300   -9.1150 F   0  0  0  0  0  0  0  0  0  0  0  0
   18.7629   -0.7140   -9.7979 C   0  0  0  0  0  0  0  0  0  0  0  0
   19.3512   -1.7844  -10.4392 C   0  0  0  0  0  0  0  0  0  0  0  0
   18.6955   -3.0616  -10.4562 C   0  0  0  0  0  0  0  0  0  0  0  0
   18.1593   -4.0849  -10.4876 N   0  0  0  0  0  0  0  0  0  0  0  0
   20.5783   -1.5719  -11.0523 C   0  0  0  0  0  0  0  0  0  0  0  0
   24.8346    0.0546  -11.4545 C   0  0  0  0  0  0  0  0  0  0  0  0
   25.9737    0.0510  -10.6830 C   0  0  0  0  0  0  0  0  0  0  0  0
   27.1310    0.3735  -11.5832 C   0  0  2  0  0  0  0  0  0  0  0  0
   28.0820    1.1521  -10.9829 O   0  0  0  0  0  0  0  0  0  0  0  0
   26.4464    1.2071  -12.6464 C   0  0  1  0  0  0  0  0  0  0  0  0
   26.0246    2.4230  -12.1326 F   0  0  0  0  0  0  0  0  0  0  0  0
   27.1798    1.3382  -13.7855 F   0  0  0  0  0  0  0  0  0  0  0  0
   25.1762    0.3739  -12.8674 C   0  0  0  0  0  0  0  0  0  0  0  0
  2  1  1  6
  2  3  1  0
  3  4  2  0
  3  5  2  0
  3  6  1  6
  6  7  2  0
  7  8  1  0
  8  9  2  0
  9 10  1  0
 10 11  1  0
 11 12  2  0
 12 13  1  0
 13 14  1  0
 13 15  2  0
 15 16  1  0
 16 17  1  0
 17 18  3  0
 16 19  2  0
  9 20  1  0
 20 21  2  0
 21 22  1  0
 22 23  1  1
 22 24  1  0
 24 25  1  1
 24 26  1  0
 24 27  1  0
 21  6  1  0
 19 11  1  0
 27 20  1  6
M  END
$$$$
