_rank15
     RDKit          3D

 27 29  0  0  0  0  0  0  0  0999 V2000
   27.6708   -2.9477   -8.0043 C   0  0  0  0  0  0  0  0  0  0  0  0
   28.3379   -1.9037   -8.8360 C   0  0  0  0  0  0  0  0  0  0  0  0
   27.5473   -0.3314   -8.7639 S   0  0  2  0  0  6  0  0  0  0  0  0
   28.5030    0.7173   -9.2448 O   0  0  0  0  0  0  0  0  0  0  0  0
   27.2818   -0.0304   -7.3078 O   0  0  0  0  0  0  0  0  0  0  0  0
   26.0813   -0.2638   -9.6976 C   0  0  0  0  0  0  0  0  0  0  0  0
   24.8708   -0.5296   -9.0994 C   0  0  0  0  0  0  0  0  0  0  0  0
   23.6790   -0.4806   -9.8313 C   0  0  0  0  0  0  0  0  0  0  0  0
   23.7024   -0.1667  -11.1558 C   0  0  0  0  0  0  0  0  0  0  0  0
   22.5015   -0.1167  -11.8964 O   0  0  0  0  0  0  0  0  0  0  0  0
   21.3013   -0.2971  -11.2280 C   0  0  0  0  0  0  0  0  0  0  0  0
   20.6395    0.7390  -10.5816 C   0  0  0  0  0  0  0  0  0  0  0  0
   19.4419    0.5283   -9.9222 C   0  0  0  0  0  0  0  0  0  0  0  0
   18.7795    1.5191   -9.2865 F   0  0  0  0  0  0  0  0  0  0  0  0
   18.9011   -0.7387   -9.9111 C   0  0  0  0  0  0  0  0  0  0  0  0
   19.5230   -1.7978  -10.5394 C   0  0  0  0  0  0  0  0  0  0  0  0
   18.9281   -3.1040  -10.5058 C   0  0  0  0  0  0  0  0  0  0  0  0
   18.4313   -4.1473  -10.4829 N   0  0  0  0  0  0  0  0  0  0  0  0
   20.7229   -1.5453  -11.1900 C   0  0  0  0  0  0  0  0  0  0  0  0
   24.9078    0.0997  -11.7592 C   0  0  0  0  0  0  0  0  0  0  0  0
   26.0750    0.0493  -11.0325 C   0  0  0  0  0  0  0  0  0  0  0  0
   27.2033    0.3835  -11.9647 C   0  0  2  0  0  0  0  0  0  0  0  0
   28.1904    1.1240  -11.3747 O   0  0  0  0  0  0  0  0  0  0  0  0
   26.4946    1.2658  -12.9713 C   0  0  1  0  0  0  0  0  0  0  0  0
   26.1149    2.4699  -12.3999 F   0  0  0  0  0  0  0  0  0  0  0  0
   27.1869    1.4245  -14.1326 F   0  0  0  0  0  0  0  0  0  0  0  0
   25.2018    0.4628  -13.1723 C   0  0  0  0  0  0  0  0  0  0  0  0
  2  1  1  6
  2  3  1  0
  3  4  2  0
  3  5  2  0
  3  6  1  6
  6  7  2  0
  7  8  1  0
  8  9  2  0
  9 10  1  0
 10 11  1  0
 11 12  2  0
 12 13  1  0
 13 14  1  0
 13 15  2  0
 15 16  1  0
 16 17  1  0
 17 18  3  0
 16 19  2  0
  9 20  1  0
 20 21  2  0
 21 22  1  0
 22 23  1  1
 22 24  1  0
 24 25  1  1
 24 26  1  0
 24 27  1  0
 21  6  1  0
 19 11  1  0
 27 20  1  6
M  END
$$$$
