_rank6
     RDKit          3D

 27 29  0  0  0  0  0  0  0  0999 V2000
   28.9330    0.8273   -9.0885 C   0  0  0  0  0  0  0  0  0  0  0  0
   28.2206    0.0280   -8.0491 C   0  0  0  0  0  0  0  0  0  0  0  0
   27.3965   -1.3904   -8.6904 S   0  0  2  0  0  6  0  0  0  0  0  0
   27.0643   -2.3143   -7.5589 O   0  0  0  0  0  0  0  0  0  0  0  0
   28.3852   -2.1253   -9.5644 O   0  0  0  0  0  0  0  0  0  0  0  0
   25.9497   -0.9959   -9.5718 C   0  0  0  0  0  0  0  0  0  0  0  0
   24.7174   -1.1603   -8.9817 C   0  0  0  0  0  0  0  0  0  0  0  0
   23.5405   -0.8488   -9.6721 C   0  0  0  0  0  0  0  0  0  0  0  0
   23.6006   -0.3752  -10.9470 C   0  0  0  0  0  0  0  0  0  0  0  0
   22.4149   -0.0603  -11.6455 O   0  0  0  0  0  0  0  0  0  0  0  0
   21.2080   -0.5249  -11.1481 C   0  0  0  0  0  0  0  0  0  0  0  0
   20.7717   -1.8302  -11.3364 C   0  0  0  0  0  0  0  0  0  0  0  0
   19.5613   -2.2654  -10.8276 C   0  0  0  0  0  0  0  0  0  0  0  0
   19.1153   -3.5292  -10.9973 F   0  0  0  0  0  0  0  0  0  0  0  0
   18.7782   -1.3796  -10.1206 C   0  0  0  0  0  0  0  0  0  0  0  0
   19.1710   -0.0742   -9.9089 C   0  0  0  0  0  0  0  0  0  0  0  0
   18.3272    0.8195   -9.1668 C   0  0  0  0  0  0  0  0  0  0  0  0
   17.6523    1.5286   -8.5526 N   0  0  0  0  0  0  0  0  0  0  0  0
   20.3921    0.3238  -10.4355 C   0  0  0  0  0  0  0  0  0  0  0  0
   24.8280   -0.2088  -11.5419 C   0  0  0  0  0  0  0  0  0  0  0  0
   25.9802   -0.5174  -10.8563 C   0  0  0  0  0  0  0  0  0  0  0  0
   27.1390   -0.2315  -11.7669 C   0  0  2  0  0  0  0  0  0  0  0  0
   28.2267    0.2793  -11.1135 O   0  0  0  0  0  0  0  0  0  0  0  0
   26.5590    0.8640  -12.6373 C   0  0  1  0  0  0  0  0  0  0  0  0
   26.3612    2.0271  -11.9104 F   0  0  0  0  0  0  0  0  0  0  0  0
   27.2594    1.0690  -13.7863 F   0  0  0  0  0  0  0  0  0  0  0  0
   25.1624    0.2859  -12.9052 C   0  0  0  0  0  0  0  0  0  0  0  0
  2  1  1  6
  2  3  1  0
  3  4  2  0
  3  5  2  0
  3  6  1  6
  6  7  2  0
  7  8  1  0
  8  9  2  0
  9 10  1  0
 10 11  1  0
 11 12  2  0
 12 13  1  0
 13 14  1  0
 13 15  2  0
 15 16  1  0
 16 17  1  0
 17 18  3  0
 16 19  2  0
  9 20  1  0
 20 21  2  0
 21 22  1  0
 22 23  1  1
 22 24  1  0
 24 25  1  1
 24 26  1  0
 24 27  1  0
 21  6  1  0
 19 11  1  0
 27 20  1  6
M  END
$$$$
