_rank17
     RDKit          3D

 27 29  0  0  0  0  0  0  0  0999 V2000
   28.2940   -2.4530   -9.5921 C   0  0  0  0  0  0  0  0  0  0  0  0
   27.9899   -1.9382   -8.2249 C   0  0  0  0  0  0  0  0  0  0  0  0
   27.2531   -0.3383   -8.2201 S   0  0  2  0  0  6  0  0  0  0  0  0
   28.2574    0.6622   -8.7044 O   0  0  0  0  0  0  0  0  0  0  0  0
   26.9596    0.0148   -6.7812 O   0  0  0  0  0  0  0  0  0  0  0  0
   25.8158   -0.2485   -9.1956 C   0  0  0  0  0  0  0  0  0  0  0  0
   24.5771   -0.3787   -8.6105 C   0  0  0  0  0  0  0  0  0  0  0  0
   23.4076   -0.3093   -9.3761 C   0  0  0  0  0  0  0  0  0  0  0  0
   23.4813   -0.1104  -10.7208 C   0  0  0  0  0  0  0  0  0  0  0  0
   22.3031   -0.0400  -11.4953 O   0  0  0  0  0  0  0  0  0  0  0  0
   21.0850   -0.2586  -10.8722 C   0  0  0  0  0  0  0  0  0  0  0  0
   20.4163    0.7317  -10.1640 C   0  0  0  0  0  0  0  0  0  0  0  0
   19.2008    0.4835   -9.5521 C   0  0  0  0  0  0  0  0  0  0  0  0
   18.5313    1.4295   -8.8581 F   0  0  0  0  0  0  0  0  0  0  0  0
   18.6488   -0.7747   -9.6520 C   0  0  0  0  0  0  0  0  0  0  0  0
   19.2771   -1.7889  -10.3449 C   0  0  0  0  0  0  0  0  0  0  0  0
   18.6701   -3.0874  -10.4266 C   0  0  0  0  0  0  0  0  0  0  0  0
   18.1993   -4.1405  -10.4978 N   0  0  0  0  0  0  0  0  0  0  0  0
   20.4950   -1.4998  -10.9447 C   0  0  0  0  0  0  0  0  0  0  0  0
   24.7153    0.0203  -11.3112 C   0  0  0  0  0  0  0  0  0  0  0  0
   25.8601   -0.0491  -10.5515 C   0  0  0  0  0  0  0  0  0  0  0  0
   27.0290    0.1266  -11.4771 C   0  0  2  0  0  0  0  0  0  0  0  0
   28.0535    0.8442  -10.9237 O   0  0  0  0  0  0  0  0  0  0  0  0
   26.4063    0.9679  -12.5719 C   0  0  1  0  0  0  0  0  0  0  0  0
   26.1012    2.2391  -12.1123 F   0  0  0  0  0  0  0  0  0  0  0  0
   27.1327    0.9800  -13.7231 F   0  0  0  0  0  0  0  0  0  0  0  0
   25.0643    0.2421  -12.7409 C   0  0  0  0  0  0  0  0  0  0  0  0
  2  1  1  6
  2  3  1  0
  3  4  2  0
  3  5  2  0
  3  6  1  6
  6  7  2  0
  7  8  1  0
  8  9  2  0
  9 10  1  0
 10 11  1  0
 11 12  2  0
 12 13  1  0
 13 14  1  0
 13 15  2  0
 15 16  1  0
 16 17  1  0
 17 18  3  0
 16 19  2  0
  9 20  1  0
 20 21  2  0
 21 22  1  0
 22 23  1  1
 22 24  1  0
 24 25  1  1
 24 26  1  0
 24 27  1  0
 21  6  1  0
 19 11  1  0
 27 20  1  6
M  END
$$$$
