_rank4
     RDKit          3D

 27 29  0  0  0  0  0  0  0  0999 V2000
   27.9084    1.8527   -8.9326 C   0  0  0  0  0  0  0  0  0  0  0  0
   27.7837    0.7864   -7.8963 C   0  0  0  0  0  0  0  0  0  0  0  0
   27.1985   -0.7494   -8.5297 S   0  0  2  0  0  6  0  0  0  0  0  0
   26.8976   -1.6664   -7.3839 O   0  0  0  0  0  0  0  0  0  0  0  0
   28.3378   -1.3816   -9.2937 O   0  0  0  0  0  0  0  0  0  0  0  0
   25.7874   -0.5782   -9.5323 C   0  0  0  0  0  0  0  0  0  0  0  0
   24.5329   -0.6160   -8.9679 C   0  0  0  0  0  0  0  0  0  0  0  0
   23.3840   -0.4799   -9.7554 C   0  0  0  0  0  0  0  0  0  0  0  0
   23.4940   -0.3069  -11.1012 C   0  0  0  0  0  0  0  0  0  0  0  0
   22.3366   -0.1694  -11.8978 O   0  0  0  0  0  0  0  0  0  0  0  0
   21.1017   -0.4275  -11.3248 C   0  0  0  0  0  0  0  0  0  0  0  0
   20.2062    0.5793  -10.9875 C   0  0  0  0  0  0  0  0  0  0  0  0
   18.9798    0.2907  -10.4163 C   0  0  0  0  0  0  0  0  0  0  0  0
   18.0922    1.2517  -10.0795 F   0  0  0  0  0  0  0  0  0  0  0  0
   18.6475   -1.0252  -10.1803 C   0  0  0  0  0  0  0  0  0  0  0  0
   19.5053   -2.0577  -10.4989 C   0  0  0  0  0  0  0  0  0  0  0  0
   19.1231   -3.4168  -10.2377 C   0  0  0  0  0  0  0  0  0  0  0  0
   18.8333   -4.5139  -10.0186 N   0  0  0  0  0  0  0  0  0  0  0  0
   20.7261   -1.7268  -11.0704 C   0  0  0  0  0  0  0  0  0  0  0  0
   24.7438   -0.2683  -11.6710 C   0  0  0  0  0  0  0  0  0  0  0  0
   25.8682   -0.4029  -10.8898 C   0  0  0  0  0  0  0  0  0  0  0  0
   27.0619   -0.3201  -11.7965 C   0  0  2  0  0  0  0  0  0  0  0  0
   28.1228    0.3354  -11.2347 O   0  0  0  0  0  0  0  0  0  0  0  0
   26.5162    0.5442  -12.9141 C   0  0  1  0  0  0  0  0  0  0  0  0
   26.2896    1.8400  -12.4780 F   0  0  0  0  0  0  0  0  0  0  0  0
   27.2613    0.4900  -14.0520 F   0  0  0  0  0  0  0  0  0  0  0  0
   25.1314   -0.0923  -13.0971 C   0  0  0  0  0  0  0  0  0  0  0  0
  2  1  1  6
  2  3  1  0
  3  4  2  0
  3  5  2  0
  3  6  1  6
  6  7  2  0
  7  8  1  0
  8  9  2  0
  9 10  1  0
 10 11  1  0
 11 12  2  0
 12 13  1  0
 13 14  1  0
 13 15  2  0
 15 16  1  0
 16 17  1  0
 17 18  3  0
 16 19  2  0
  9 20  1  0
 20 21  2  0
 21 22  1  0
 22 23  1  1
 22 24  1  0
 24 25  1  1
 24 26  1  0
 24 27  1  0
 21  6  1  0
 19 11  1  0
 27 20  1  6
M  END
$$$$
