_rank12
     RDKit          3D

 27 29  0  0  0  0  0  0  0  0999 V2000
   28.6467   -2.4836   -9.8625 C   0  0  0  0  0  0  0  0  0  0  0  0
   28.8289   -1.0955   -9.3463 C   0  0  0  0  0  0  0  0  0  0  0  0
   27.4725   -0.5160   -8.3836 S   0  0  2  0  0  6  0  0  0  0  0  0
   27.8505    0.7838   -7.7417 O   0  0  0  0  0  0  0  0  0  0  0  0
   27.2680   -1.5031   -7.2588 O   0  0  0  0  0  0  0  0  0  0  0  0
   26.0168   -0.3114   -9.3135 C   0  0  0  0  0  0  0  0  0  0  0  0
   24.7885   -0.4712   -8.7140 C   0  0  0  0  0  0  0  0  0  0  0  0
   23.6045   -0.3110   -9.4429 C   0  0  0  0  0  0  0  0  0  0  0  0
   23.6536    0.0077  -10.7655 C   0  0  0  0  0  0  0  0  0  0  0  0
   22.4608    0.1699  -11.5029 O   0  0  0  0  0  0  0  0  0  0  0  0
   21.2713   -0.2732  -10.9473 C   0  0  0  0  0  0  0  0  0  0  0  0
   20.9720   -1.6207  -10.7922 C   0  0  0  0  0  0  0  0  0  0  0  0
   19.7755   -2.0331  -10.2338 C   0  0  0  0  0  0  0  0  0  0  0  0
   19.4614   -3.3370  -10.0724 F   0  0  0  0  0  0  0  0  0  0  0  0
   18.8674   -1.0812   -9.8255 C   0  0  0  0  0  0  0  0  0  0  0  0
   19.1219    0.2681   -9.9599 C   0  0  0  0  0  0  0  0  0  0  0  0
   18.1503    1.2304   -9.5224 C   0  0  0  0  0  0  0  0  0  0  0  0
   17.3547    1.9968   -9.1828 N   0  0  0  0  0  0  0  0  0  0  0  0
   20.3336    0.6411  -10.5249 C   0  0  0  0  0  0  0  0  0  0  0  0
   24.8770    0.1687  -11.3701 C   0  0  0  0  0  0  0  0  0  0  0  0
   26.0362    0.0094  -10.6464 C   0  0  0  0  0  0  0  0  0  0  0  0
   27.1883    0.2469  -11.5792 C   0  0  2  0  0  0  0  0  0  0  0  0
   28.2390    0.8922  -10.9870 O   0  0  0  0  0  0  0  0  0  0  0  0
   26.5598    1.1955  -12.5788 C   0  0  1  0  0  0  0  0  0  0  0  0
   26.2907    2.4251  -11.9992 F   0  0  0  0  0  0  0  0  0  0  0  0
   27.2614    1.2987  -13.7406 F   0  0  0  0  0  0  0  0  0  0  0  0
   25.1999    0.5129  -12.7815 C   0  0  0  0  0  0  0  0  0  0  0  0
  2  1  1  6
  2  3  1  0
  3  4  2  0
  3  5  2  0
  3  6  1  6
  6  7  2  0
  7  8  1  0
  8  9  2  0
  9 10  1  0
 10 11  1  0
 11 12  2  0
 12 13  1  0
 13 14  1  0
 13 15  2  0
 15 16  1  0
 16 17  1  0
 17 18  3  0
 16 19  2  0
  9 20  1  0
 20 21  2  0
 21 22  1  0
 22 23  1  1
 22 24  1  0
 24 25  1  1
 24 26  1  0
 24 27  1  0
 21  6  1  0
 19 11  1  0
 27 20  1  6
M  END
$$$$
