_rank8
     RDKit          3D

 27 29  0  0  0  0  0  0  0  0999 V2000
   27.5380    1.3817   -7.4404 C   0  0  0  0  0  0  0  0  0  0  0  0
   28.2073    0.5119   -8.4515 C   0  0  0  0  0  0  0  0  0  0  0  0
   27.3418   -0.9871   -8.7774 S   0  0  2  0  0  6  0  0  0  0  0  0
   27.0513   -1.6746   -7.4784 O   0  0  0  0  0  0  0  0  0  0  0  0
   28.2835   -1.8915   -9.5368 O   0  0  0  0  0  0  0  0  0  0  0  0
   25.8611   -0.7403   -9.6563 C   0  0  0  0  0  0  0  0  0  0  0  0
   24.6497   -0.9244   -9.0301 C   0  0  0  0  0  0  0  0  0  0  0  0
   23.4462   -0.7310   -9.7178 C   0  0  0  0  0  0  0  0  0  0  0  0
   23.4590   -0.3551  -11.0261 C   0  0  0  0  0  0  0  0  0  0  0  0
   22.2465   -0.1594  -11.7221 O   0  0  0  0  0  0  0  0  0  0  0  0
   21.0539   -0.3033  -11.0314 C   0  0  0  0  0  0  0  0  0  0  0  0
   20.5211    0.7037  -10.2368 C   0  0  0  0  0  0  0  0  0  0  0  0
   19.3278    0.5308   -9.5588 C   0  0  0  0  0  0  0  0  0  0  0  0
   18.7894    1.4945   -8.7803 F   0  0  0  0  0  0  0  0  0  0  0  0
   18.6602   -0.6682   -9.6796 C   0  0  0  0  0  0  0  0  0  0  0  0
   19.1516   -1.6961  -10.4575 C   0  0  0  0  0  0  0  0  0  0  0  0
   18.4268   -2.9314  -10.5586 C   0  0  0  0  0  0  0  0  0  0  0  0
   17.8415   -3.9260  -10.6199 N   0  0  0  0  0  0  0  0  0  0  0  0
   20.3517   -1.4834  -11.1217 C   0  0  0  0  0  0  0  0  0  0  0  0
   24.6655   -0.1696  -11.6573 C   0  0  0  0  0  0  0  0  0  0  0  0
   25.8441   -0.3619  -10.9740 C   0  0  0  0  0  0  0  0  0  0  0  0
   26.9702   -0.0856  -11.9276 C   0  0  2  0  0  0  0  0  0  0  0  0
   28.0387    0.5319  -11.3377 O   0  0  0  0  0  0  0  0  0  0  0  0
   26.3164    0.9064  -12.8670 C   0  0  1  0  0  0  0  0  0  0  0  0
   26.0668    2.1100  -12.2272 F   0  0  0  0  0  0  0  0  0  0  0  0
   26.9855    1.0590  -14.0425 F   0  0  0  0  0  0  0  0  0  0  0  0
   24.9496    0.2352  -13.0610 C   0  0  0  0  0  0  0  0  0  0  0  0
  2  1  1  6
  2  3  1  0
  3  4  2  0
  3  5  2  0
  3  6  1  6
  6  7  2  0
  7  8  1  0
  8  9  2  0
  9 10  1  0
 10 11  1  0
 11 12  2  0
 12 13  1  0
 13 14  1  0
 13 15  2  0
 15 16  1  0
 16 17  1  0
 17 18  3  0
 16 19  2  0
  9 20  1  0
 20 21  2  0
 21 22  1  0
 22 23  1  1
 22 24  1  0
 24 25  1  1
 24 26  1  0
 24 27  1  0
 21  6  1  0
 19 11  1  0
 27 20  1  6
M  END
$$$$
