_rank1
     RDKit          3D

 25 27  0  0  0  0  0  0  0  0999 V2000
   28.0215    1.3078   -8.1093 C   0  0  0  0  0  0  0  0  0  0  0  0
   27.4815   -0.3404   -8.4701 S   0  0  1  0  0  6  0  0  0  0  0  0
   28.5413   -1.2036   -9.0462 O   0  0  0  0  0  0  0  0  0  0  0  0
   27.1209   -0.9579   -7.1210 O   0  0  0  0  0  0  0  0  0  0  0  0
   26.0277   -0.3691   -9.4535 C   0  0  0  0  0  0  0  0  0  0  0  0
   24.8573   -0.9225   -8.9810 C   0  0  0  0  0  0  0  0  0  0  0  0
   23.7240   -0.9234   -9.7491 C   0  0  0  0  0  0  0  0  0  0  0  0
   23.7636   -0.3539  -11.0272 C   0  0  0  0  0  0  0  0  0  0  0  0
   22.5745   -0.3954  -11.7337 O   0  0  0  0  0  0  0  0  0  0  0  0
   21.3642   -0.6881  -11.1627 C   0  0  0  0  0  0  0  0  0  0  0  0
   20.7763   -1.9284  -11.2008 C   0  0  0  0  0  0  0  0  0  0  0  0
   19.5459   -2.1225  -10.5938 C   0  0  0  0  0  0  0  0  0  0  0  0
   18.9731   -3.3633  -10.6427 F   0  0  0  0  0  0  0  0  0  0  0  0
   18.8859   -1.0958   -9.9439 C   0  0  0  0  0  0  0  0  0  0  0  0
   19.4656    0.1723   -9.8928 C   0  0  0  0  0  0  0  0  0  0  0  0
   18.7635    1.2126   -9.2112 C   0  0  0  0  0  0  0  0  0  0  0  0
   18.1698    2.0613   -8.6359 N   0  0  0  0  0  0  0  0  0  0  0  0
   20.6734    0.3319  -10.4979 C   0  0  0  0  0  0  0  0  0  0  0  0
   24.9135    0.2010  -11.5206 C   0  0  0  0  0  0  0  0  0  0  0  0
   26.0575    0.1869  -10.7099 C   0  0  0  0  0  0  0  0  0  0  0  0
   27.1668    0.8450  -11.4740 C   0  0  1  0  0  0  0  0  0  0  0  0
   28.3937    0.2273  -11.2195 O   0  0  0  0  0  0  0  0  0  0  0  0
   26.7522    0.5476  -12.8962 C   0  0  1  0  0  0  0  0  0  0  0  0
   26.8743   -0.8036  -13.1196 F   0  0  0  0  0  0  0  0  0  0  0  0
   25.2474    0.8446  -12.8096 C   0  0  0  0  0  0  0  0  0  0  0  0
  1  2  1  1
  2  3  2  0
  2  4  2  0
  2  5  1  6
  5  6  2  0
  6  7  1  0
  7  8  2  0
  8  9  1  0
  9 10  1  0
 10 11  2  0
 11 12  1  0
 12 13  1  0
 12 14  2  0
 14 15  1  0
 15 16  1  0
 16 17  3  0
 15 18  2  0
  8 19  1  0
 19 20  2  0
 20 21  1  0
 21 22  1  1
 21 23  1  0
 23 24  1  1
 23 25  1  0
 20  5  1  0
 18 10  1  0
 25 19  1  1
M  END
$$$$
