_rank7
     RDKit          3D

 25 27  0  0  0  0  0  0  0  0999 V2000
   27.8434    1.4631   -8.2324 C   0  0  0  0  0  0  0  0  0  0  0  0
   27.3881   -0.1966   -8.6524 S   0  0  1  0  0  6  0  0  0  0  0  0
   28.4800   -0.9724   -9.2897 O   0  0  0  0  0  0  0  0  0  0  0  0
   27.0971   -0.8903   -7.3236 O   0  0  0  0  0  0  0  0  0  0  0  0
   25.9139   -0.2670   -9.6026 C   0  0  0  0  0  0  0  0  0  0  0  0
   24.7485   -0.7798   -9.0750 C   0  0  0  0  0  0  0  0  0  0  0  0
   23.5994   -0.8134   -9.8184 C   0  0  0  0  0  0  0  0  0  0  0  0
   23.6175   -0.3194  -11.1281 C   0  0  0  0  0  0  0  0  0  0  0  0
   22.4136   -0.3894  -11.8066 O   0  0  0  0  0  0  0  0  0  0  0  0
   21.1951   -0.4454  -11.1832 C   0  0  0  0  0  0  0  0  0  0  0  0
   20.6000    0.6246  -10.5614 C   0  0  0  0  0  0  0  0  0  0  0  0
   19.3642    0.4647   -9.9557 C   0  0  0  0  0  0  0  0  0  0  0  0
   18.7862    1.5399   -9.3390 F   0  0  0  0  0  0  0  0  0  0  0  0
   18.7049   -0.7508   -9.9587 C   0  0  0  0  0  0  0  0  0  0  0  0
   19.2914   -1.8509  -10.5851 C   0  0  0  0  0  0  0  0  0  0  0  0
   18.5858   -3.0927  -10.5764 C   0  0  0  0  0  0  0  0  0  0  0  0
   18.0163   -4.1317  -10.5790 N   0  0  0  0  0  0  0  0  0  0  0  0
   20.5047   -1.6630  -11.1705 C   0  0  0  0  0  0  0  0  0  0  0  0
   24.7619    0.1939  -11.6763 C   0  0  0  0  0  0  0  0  0  0  0  0
   25.9225    0.2148  -10.8896 C   0  0  0  0  0  0  0  0  0  0  0  0
   27.0216    0.8158  -11.7132 C   0  0  1  0  0  0  0  0  0  0  0  0
   28.2478    0.2011  -11.4482 O   0  0  0  0  0  0  0  0  0  0  0  0
   26.5746    0.4408  -13.1069 C   0  0  1  0  0  0  0  0  0  0  0  0
   26.6794   -0.9223  -13.2537 F   0  0  0  0  0  0  0  0  0  0  0  0
   25.0747    0.7581  -13.0071 C   0  0  0  0  0  0  0  0  0  0  0  0
  1  2  1  1
  2  3  2  0
  2  4  2  0
  2  5  1  6
  5  6  2  0
  6  7  1  0
  7  8  2  0
  8  9  1  0
  9 10  1  0
 10 11  2  0
 11 12  1  0
 12 13  1  0
 12 14  2  0
 14 15  1  0
 15 16  1  0
 16 17  3  0
 15 18  2  0
  8 19  1  0
 19 20  2  0
 20 21  1  0
 21 22  1  1
 21 23  1  0
 23 24  1  1
 23 25  1  0
 20  5  1  0
 18 10  1  0
 25 19  1  1
M  END
$$$$
