_rank3
     RDKit          3D

 25 27  0  0  0  0  0  0  0  0999 V2000
   28.4407    1.1564   -8.7255 C   0  0  0  0  0  0  0  0  0  0  0  0
   27.6446   -0.4262   -8.7406 S   0  0  1  0  0  6  0  0  0  0  0  0
   28.5411   -1.5421   -9.1293 O   0  0  0  0  0  0  0  0  0  0  0  0
   27.2393   -0.6947   -7.2931 O   0  0  0  0  0  0  0  0  0  0  0  0
   26.1715   -0.4262   -9.6952 C   0  0  0  0  0  0  0  0  0  0  0  0
   24.9986   -0.9515   -9.1976 C   0  0  0  0  0  0  0  0  0  0  0  0
   23.8507   -0.9301   -9.9433 C   0  0  0  0  0  0  0  0  0  0  0  0
   23.8778   -0.3667  -11.2245 C   0  0  0  0  0  0  0  0  0  0  0  0
   22.6745   -0.3844  -11.9074 O   0  0  0  0  0  0  0  0  0  0  0  0
   21.4834   -0.7432  -11.3337 C   0  0  0  0  0  0  0  0  0  0  0  0
   20.9674   -2.0154  -11.3655 C   0  0  0  0  0  0  0  0  0  0  0  0
   19.7507   -2.2767  -10.7564 C   0  0  0  0  0  0  0  0  0  0  0  0
   19.2497   -3.5485  -10.7990 F   0  0  0  0  0  0  0  0  0  0  0  0
   19.0335   -1.2865  -10.1104 C   0  0  0  0  0  0  0  0  0  0  0  0
   19.5397    0.0128  -10.0656 C   0  0  0  0  0  0  0  0  0  0  0  0
   18.7798    1.0143   -9.3879 C   0  0  0  0  0  0  0  0  0  0  0  0
   18.1637    1.8459   -8.8110 N   0  0  0  0  0  0  0  0  0  0  0  0
   20.7359    0.2385  -10.6728 C   0  0  0  0  0  0  0  0  0  0  0  0
   25.0299    0.1604  -11.7427 C   0  0  0  0  0  0  0  0  0  0  0  0
   26.1890    0.1240  -10.9545 C   0  0  0  0  0  0  0  0  0  0  0  0
   27.2975    0.7540  -11.7430 C   0  0  1  0  0  0  0  0  0  0  0  0
   28.5151    0.1101  -11.5098 O   0  0  0  0  0  0  0  0  0  0  0  0
   26.8485    0.4604  -13.1555 C   0  0  1  0  0  0  0  0  0  0  0  0
   26.9361   -0.8941  -13.3752 F   0  0  0  0  0  0  0  0  0  0  0  0
   25.3527    0.7913  -13.0408 C   0  0  0  0  0  0  0  0  0  0  0  0
  1  2  1  1
  2  3  2  0
  2  4  2  0
  2  5  1  6
  5  6  2  0
  6  7  1  0
  7  8  2  0
  8  9  1  0
  9 10  1  0
 10 11  2  0
 11 12  1  0
 12 13  1  0
 12 14  2  0
 14 15  1  0
 15 16  1  0
 16 17  3  0
 15 18  2  0
  8 19  1  0
 19 20  2  0
 20 21  1  0
 21 22  1  1
 21 23  1  0
 23 24  1  1
 23 25  1  0
 20  5  1  0
 18 10  1  0
 25 19  1  1
M  END
$$$$
