_rank18
     RDKit          3D

 25 27  0  0  0  0  0  0  0  0999 V2000
   28.9529   -0.6388   -9.6428 C   0  0  0  0  0  0  0  0  0  0  0  0
   27.5279    0.0050   -8.8101 S   0  0  1  0  0  6  0  0  0  0  0  0
   27.4840   -0.3197   -7.3634 O   0  0  0  0  0  0  0  0  0  0  0  0
   27.6534    1.5242   -8.8984 O   0  0  0  0  0  0  0  0  0  0  0  0
   26.0287   -0.4342   -9.6105 C   0  0  0  0  0  0  0  0  0  0  0  0
   25.0635   -1.1739   -8.9620 C   0  0  0  0  0  0  0  0  0  0  0  0
   23.8898   -1.4957   -9.5890 C   0  0  0  0  0  0  0  0  0  0  0  0
   23.6762   -1.0645  -10.9036 C   0  0  0  0  0  0  0  0  0  0  0  0
   22.4636   -1.4314  -11.4600 O   0  0  0  0  0  0  0  0  0  0  0  0
   21.2556   -0.9533  -11.0257 C   0  0  0  0  0  0  0  0  0  0  0  0
   21.0975    0.2247  -10.3380 C   0  0  0  0  0  0  0  0  0  0  0  0
   19.8310    0.6205   -9.9390 C   0  0  0  0  0  0  0  0  0  0  0  0
   19.6912    1.7954   -9.2531 F   0  0  0  0  0  0  0  0  0  0  0  0
   18.7105   -0.1411  -10.2154 C   0  0  0  0  0  0  0  0  0  0  0  0
   18.8484   -1.3413  -10.9135 C   0  0  0  0  0  0  0  0  0  0  0  0
   17.6735   -2.1052  -11.1887 C   0  0  0  0  0  0  0  0  0  0  0  0
   16.7091   -2.7561  -11.4125 N   0  0  0  0  0  0  0  0  0  0  0  0
   20.1040   -1.7034  -11.2914 C   0  0  0  0  0  0  0  0  0  0  0  0
   24.6192   -0.3299  -11.5707 C   0  0  0  0  0  0  0  0  0  0  0  0
   25.8108   -0.0161  -10.9014 C   0  0  0  0  0  0  0  0  0  0  0  0
   26.6648    0.7823  -11.8398 C   0  0  1  0  0  0  0  0  0  0  0  0
   28.0176    0.4706  -11.6836 O   0  0  0  0  0  0  0  0  0  0  0  0
   26.1908    0.2594  -13.1757 C   0  0  1  0  0  0  0  0  0  0  0  0
   26.5897   -1.0500  -13.3054 F   0  0  0  0  0  0  0  0  0  0  0  0
   24.6734    0.2350  -12.9364 C   0  0  0  0  0  0  0  0  0  0  0  0
  1  2  1  1
  2  3  2  0
  2  4  2  0
  2  5  1  6
  5  6  2  0
  6  7  1  0
  7  8  2  0
  8  9  1  0
  9 10  1  0
 10 11  2  0
 11 12  1  0
 12 13  1  0
 12 14  2  0
 14 15  1  0
 15 16  1  0
 16 17  3  0
 15 18  2  0
  8 19  1  0
 19 20  2  0
 20 21  1  0
 21 22  1  1
 21 23  1  0
 23 24  1  1
 23 25  1  0
 20  5  1  0
 18 10  1  0
 25 19  1  1
M  END
$$$$
