_rank12
     RDKit          3D

 25 27  0  0  0  0  0  0  0  0999 V2000
   28.6971   -1.1274   -9.1936 C   0  0  0  0  0  0  0  0  0  0  0  0
   27.4697    0.0550   -8.7101 S   0  0  1  0  0  6  0  0  0  0  0  0
   27.1675    0.0425   -7.2579 O   0  0  0  0  0  0  0  0  0  0  0  0
   28.0814    1.4231   -9.0025 O   0  0  0  0  0  0  0  0  0  0  0  0
   26.0051   -0.0689   -9.6698 C   0  0  0  0  0  0  0  0  0  0  0  0
   24.8697   -0.6653   -9.1654 C   0  0  0  0  0  0  0  0  0  0  0  0
   23.7269   -0.7405   -9.9155 C   0  0  0  0  0  0  0  0  0  0  0  0
   23.7207   -0.2034  -11.2082 C   0  0  0  0  0  0  0  0  0  0  0  0
   22.5251   -0.3203  -11.8948 O   0  0  0  0  0  0  0  0  0  0  0  0
   21.3028   -0.3912  -11.2805 C   0  0  0  0  0  0  0  0  0  0  0  0
   20.7473    0.6330  -10.5538 C   0  0  0  0  0  0  0  0  0  0  0  0
   19.5037    0.4612   -9.9676 C   0  0  0  0  0  0  0  0  0  0  0  0
   18.9655    1.4902   -9.2453 F   0  0  0  0  0  0  0  0  0  0  0  0
   18.7975   -0.7210  -10.0938 C   0  0  0  0  0  0  0  0  0  0  0  0
   19.3432   -1.7742  -10.8283 C   0  0  0  0  0  0  0  0  0  0  0  0
   18.5897   -2.9819  -10.9456 C   0  0  0  0  0  0  0  0  0  0  0  0
   17.9767   -3.9895  -11.0585 N   0  0  0  0  0  0  0  0  0  0  0  0
   20.5654   -1.5758  -11.3914 C   0  0  0  0  0  0  0  0  0  0  0  0
   24.8353    0.3930  -11.7333 C   0  0  0  0  0  0  0  0  0  0  0  0
   25.9902    0.4548  -10.9403 C   0  0  0  0  0  0  0  0  0  0  0  0
   27.0553    1.1451  -11.7380 C   0  0  1  0  0  0  0  0  0  0  0  0
   28.3142    0.5938  -11.4869 O   0  0  0  0  0  0  0  0  0  0  0  0
   26.6354    0.7912  -13.1455 C   0  0  1  0  0  0  0  0  0  0  0  0
   26.8194   -0.5580  -13.3364 F   0  0  0  0  0  0  0  0  0  0  0  0
   25.1194    1.0179  -13.0432 C   0  0  0  0  0  0  0  0  0  0  0  0
  1  2  1  1
  2  3  2  0
  2  4  2  0
  2  5  1  6
  5  6  2  0
  6  7  1  0
  7  8  2  0
  8  9  1  0
  9 10  1  0
 10 11  2  0
 11 12  1  0
 12 13  1  0
 12 14  2  0
 14 15  1  0
 15 16  1  0
 16 17  3  0
 15 18  2  0
  8 19  1  0
 19 20  2  0
 20 21  1  0
 21 22  1  1
 21 23  1  0
 23 24  1  1
 23 25  1  0
 20  5  1  0
 18 10  1  0
 25 19  1  1
M  END
$$$$
