_rank17
     RDKit          3D

 25 27  0  0  0  0  0  0  0  0999 V2000
   27.8664   -1.2902   -7.7046 C   0  0  0  0  0  0  0  0  0  0  0  0
   27.5727    0.0696   -8.8014 S   0  0  1  0  0  6  0  0  0  0  0  0
   27.5146    1.3855   -8.1192 O   0  0  0  0  0  0  0  0  0  0  0  0
   28.7903    0.1242   -9.7212 O   0  0  0  0  0  0  0  0  0  0  0  0
   26.1680   -0.1845   -9.8228 C   0  0  0  0  0  0  0  0  0  0  0  0
   25.1050   -0.9512   -9.3966 C   0  0  0  0  0  0  0  0  0  0  0  0
   24.0061   -1.1282  -10.1937 C   0  0  0  0  0  0  0  0  0  0  0  0
   23.9703   -0.5202  -11.4541 C   0  0  0  0  0  0  0  0  0  0  0  0
   22.8226   -0.7490  -12.1922 O   0  0  0  0  0  0  0  0  0  0  0  0
   21.5802   -0.8962  -11.6343 C   0  0  0  0  0  0  0  0  0  0  0  0
   20.7462   -1.9580  -11.8846 C   0  0  0  0  0  0  0  0  0  0  0  0
   19.5049   -2.0137  -11.2715 C   0  0  0  0  0  0  0  0  0  0  0  0
   18.6855   -3.0769  -11.5331 F   0  0  0  0  0  0  0  0  0  0  0  0
   19.0763   -1.0238  -10.4063 C   0  0  0  0  0  0  0  0  0  0  0  0
   19.9081    0.0636  -10.1376 C   0  0  0  0  0  0  0  0  0  0  0  0
   19.4413    1.0689   -9.2368 C   0  0  0  0  0  0  0  0  0  0  0  0
   19.0534    1.8888   -8.4744 N   0  0  0  0  0  0  0  0  0  0  0  0
   21.1201    0.0906  -10.7545 C   0  0  0  0  0  0  0  0  0  0  0  0
   25.0134    0.2449  -11.9018 C   0  0  0  0  0  0  0  0  0  0  0  0
   26.1246    0.4077  -11.0622 C   0  0  0  0  0  0  0  0  0  0  0  0
   27.1149    1.2758  -11.7786 C   0  0  1  0  0  0  0  0  0  0  0  0
   28.4265    0.8772  -11.5093 O   0  0  0  0  0  0  0  0  0  0  0  0
   26.7894    0.9552  -13.2188 C   0  0  1  0  0  0  0  0  0  0  0  0
   27.1543   -0.3453  -13.4762 F   0  0  0  0  0  0  0  0  0  0  0  0
   25.2543    0.9782  -13.1633 C   0  0  0  0  0  0  0  0  0  0  0  0
  1  2  1  1
  2  3  2  0
  2  4  2  0
  2  5  1  6
  5  6  2  0
  6  7  1  0
  7  8  2  0
  8  9  1  0
  9 10  1  0
 10 11  2  0
 11 12  1  0
 12 13  1  0
 12 14  2  0
 14 15  1  0
 15 16  1  0
 16 17  3  0
 15 18  2  0
  8 19  1  0
 19 20  2  0
 20 21  1  0
 21 22  1  1
 21 23  1  0
 23 24  1  1
 23 25  1  0
 20  5  1  0
 18 10  1  0
 25 19  1  1
M  END
$$$$
