_rank9
     RDKit          3D

 25 27  0  0  0  0  0  0  0  0999 V2000
   27.9024    1.3312   -8.1375 C   0  0  0  0  0  0  0  0  0  0  0  0
   27.3988   -0.3274   -8.5036 S   0  0  1  0  0  6  0  0  0  0  0  0
   28.4649   -1.1524   -9.1226 O   0  0  0  0  0  0  0  0  0  0  0  0
   27.0971   -0.9715   -7.1525 O   0  0  0  0  0  0  0  0  0  0  0  0
   25.9173   -0.3859   -9.4432 C   0  0  0  0  0  0  0  0  0  0  0  0
   24.7476   -0.8738   -8.9018 C   0  0  0  0  0  0  0  0  0  0  0  0
   23.5931   -0.8981   -9.6373 C   0  0  0  0  0  0  0  0  0  0  0  0
   23.6101   -0.4203  -10.9529 C   0  0  0  0  0  0  0  0  0  0  0  0
   22.4007   -0.4794  -11.6226 O   0  0  0  0  0  0  0  0  0  0  0  0
   21.1887   -0.5691  -10.9906 C   0  0  0  0  0  0  0  0  0  0  0  0
   20.6124    0.4579  -10.2843 C   0  0  0  0  0  0  0  0  0  0  0  0
   19.3817    0.2661   -9.6774 C   0  0  0  0  0  0  0  0  0  0  0  0
   18.8225    1.2984   -8.9760 F   0  0  0  0  0  0  0  0  0  0  0  0
   18.7091   -0.9391   -9.7625 C   0  0  0  0  0  0  0  0  0  0  0  0
   19.2764   -1.9956  -10.4756 C   0  0  0  0  0  0  0  0  0  0  0  0
   18.5573   -3.2274  -10.5505 C   0  0  0  0  0  0  0  0  0  0  0  0
   17.9785   -4.2595  -10.6102 N   0  0  0  0  0  0  0  0  0  0  0  0
   20.4852   -1.7772  -11.0599 C   0  0  0  0  0  0  0  0  0  0  0  0
   24.7588    0.0682  -11.5148 C   0  0  0  0  0  0  0  0  0  0  0  0
   25.9248    0.0802  -10.7360 C   0  0  0  0  0  0  0  0  0  0  0  0
   27.0276    0.6538  -11.5740 C   0  0  1  0  0  0  0  0  0  0  0  0
   28.2458    0.0230  -11.3096 O   0  0  0  0  0  0  0  0  0  0  0  0
   26.5654    0.2692  -12.9601 C   0  0  1  0  0  0  0  0  0  0  0  0
   26.6478   -1.0970  -13.0910 F   0  0  0  0  0  0  0  0  0  0  0  0
   25.0714    0.6114  -12.8544 C   0  0  0  0  0  0  0  0  0  0  0  0
  1  2  1  1
  2  3  2  0
  2  4  2  0
  2  5  1  6
  5  6  2  0
  6  7  1  0
  7  8  2  0
  8  9  1  0
  9 10  1  0
 10 11  2  0
 11 12  1  0
 12 13  1  0
 12 14  2  0
 14 15  1  0
 15 16  1  0
 16 17  3  0
 15 18  2  0
  8 19  1  0
 19 20  2  0
 20 21  1  0
 21 22  1  1
 21 23  1  0
 23 24  1  1
 23 25  1  0
 20  5  1  0
 18 10  1  0
 25 19  1  1
M  END
$$$$
