_rank4
     RDKit          3D

 25 27  0  0  0  0  0  0  0  0999 V2000
   27.8309    1.5924   -8.3171 C   0  0  0  0  0  0  0  0  0  0  0  0
   27.4755   -0.1075   -8.6669 S   0  0  1  0  0  6  0  0  0  0  0  0
   28.6210   -0.8500   -9.2473 O   0  0  0  0  0  0  0  0  0  0  0  0
   27.1955   -0.7546   -7.3126 O   0  0  0  0  0  0  0  0  0  0  0  0
   26.0272   -0.3030   -9.6393 C   0  0  0  0  0  0  0  0  0  0  0  0
   24.9675   -1.0645   -9.1961 C   0  0  0  0  0  0  0  0  0  0  0  0
   23.8350   -1.1957   -9.9541 C   0  0  0  0  0  0  0  0  0  0  0  0
   23.7614   -0.5458  -11.1918 C   0  0  0  0  0  0  0  0  0  0  0  0
   22.5814   -0.7299  -11.8906 O   0  0  0  0  0  0  0  0  0  0  0  0
   21.3499   -0.7932  -11.2940 C   0  0  0  0  0  0  0  0  0  0  0  0
   20.5570   -1.9143  -11.2852 C   0  0  0  0  0  0  0  0  0  0  0  0
   19.3233   -1.8760  -10.6555 C   0  0  0  0  0  0  0  0  0  0  0  0
   18.5449   -3.0005  -10.6577 F   0  0  0  0  0  0  0  0  0  0  0  0
   18.8621   -0.7330  -10.0289 C   0  0  0  0  0  0  0  0  0  0  0  0
   19.6519    0.4171  -10.0255 C   0  0  0  0  0  0  0  0  0  0  0  0
   19.1521    1.5818   -9.3670 C   0  0  0  0  0  0  0  0  0  0  0  0
   18.7363    2.5575   -8.8389 N   0  0  0  0  0  0  0  0  0  0  0  0
   20.8574    0.3490  -10.6520 C   0  0  0  0  0  0  0  0  0  0  0  0
   24.8003    0.2152  -11.6556 C   0  0  0  0  0  0  0  0  0  0  0  0
   25.9465    0.3305  -10.8561 C   0  0  0  0  0  0  0  0  0  0  0  0
   26.9242    1.2042  -11.5830 C   0  0  1  0  0  0  0  0  0  0  0  0
   28.2376    0.7739  -11.3791 O   0  0  0  0  0  0  0  0  0  0  0  0
   26.5365    0.9372  -13.0186 C   0  0  1  0  0  0  0  0  0  0  0  0
   26.8663   -0.3603  -13.3323 F   0  0  0  0  0  0  0  0  0  0  0  0
   25.0054    0.9854  -12.9014 C   0  0  0  0  0  0  0  0  0  0  0  0
  1  2  1  1
  2  3  2  0
  2  4  2  0
  2  5  1  6
  5  6  2  0
  6  7  1  0
  7  8  2  0
  8  9  1  0
  9 10  1  0
 10 11  2  0
 11 12  1  0
 12 13  1  0
 12 14  2  0
 14 15  1  0
 15 16  1  0
 16 17  3  0
 15 18  2  0
  8 19  1  0
 19 20  2  0
 20 21  1  0
 21 22  1  6
 21 23  1  0
 23 24  1  1
 23 25  1  0
 20  5  1  0
 18 10  1  0
 25 19  1  1
M  END
$$$$
