_rank5
     RDKit          3D

 25 27  0  0  0  0  0  0  0  0999 V2000
   28.8505   -0.9058   -9.3405 C   0  0  0  0  0  0  0  0  0  0  0  0
   27.4026   -0.3369   -8.4929 S   0  0  1  0  0  6  0  0  0  0  0  0
   27.2105   -0.9546   -7.1580 O   0  0  0  0  0  0  0  0  0  0  0  0
   27.6340    1.1511   -8.2403 O   0  0  0  0  0  0  0  0  0  0  0  0
   25.9543   -0.4724   -9.4753 C   0  0  0  0  0  0  0  0  0  0  0  0
   24.8638   -1.1959   -9.0431 C   0  0  0  0  0  0  0  0  0  0  0  0
   23.7321   -1.2802   -9.8088 C   0  0  0  0  0  0  0  0  0  0  0  0
   23.6909   -0.6213  -11.0433 C   0  0  0  0  0  0  0  0  0  0  0  0
   22.5094   -0.7570  -11.7505 O   0  0  0  0  0  0  0  0  0  0  0  0
   21.2882   -0.9384  -11.1571 C   0  0  0  0  0  0  0  0  0  0  0  0
   20.6357   -2.1450  -11.0946 C   0  0  0  0  0  0  0  0  0  0  0  0
   19.3997   -2.2244  -10.4733 C   0  0  0  0  0  0  0  0  0  0  0  0
   18.7623   -3.4331  -10.4216 F   0  0  0  0  0  0  0  0  0  0  0  0
   18.7977   -1.1152   -9.9080 C   0  0  0  0  0  0  0  0  0  0  0  0
   19.4435    0.1204   -9.9598 C   0  0  0  0  0  0  0  0  0  0  0  0
   18.8003    1.2479   -9.3640 C   0  0  0  0  0  0  0  0  0  0  0  0
   18.2679    2.1931   -8.8876 N   0  0  0  0  0  0  0  0  0  0  0  0
   20.6550    0.1668  -10.5765 C   0  0  0  0  0  0  0  0  0  0  0  0
   24.7607    0.1026  -11.4963 C   0  0  0  0  0  0  0  0  0  0  0  0
   25.9053    0.1703  -10.6890 C   0  0  0  0  0  0  0  0  0  0  0  0
   26.9198    1.0106  -11.4047 C   0  0  1  0  0  0  0  0  0  0  0  0
   28.2147    0.5301  -11.1952 O   0  0  0  0  0  0  0  0  0  0  0  0
   26.5315    0.7662  -12.8443 C   0  0  1  0  0  0  0  0  0  0  0  0
   26.8144   -0.5410  -13.1633 F   0  0  0  0  0  0  0  0  0  0  0  0
   25.0027    0.8714  -12.7363 C   0  0  0  0  0  0  0  0  0  0  0  0
  1  2  1  1
  2  3  2  0
  2  4  2  0
  2  5  1  6
  5  6  2  0
  6  7  1  0
  7  8  2  0
  8  9  1  0
  9 10  1  0
 10 11  2  0
 11 12  1  0
 12 13  1  0
 12 14  2  0
 14 15  1  0
 15 16  1  0
 16 17  3  0
 15 18  2  0
  8 19  1  0
 19 20  2  0
 20 21  1  0
 21 22  1  6
 21 23  1  0
 23 24  1  1
 23 25  1  0
 20  5  1  0
 18 10  1  0
 25 19  1  1
M  END
$$$$
