_rank15
     RDKit          3D

 25 27  0  0  0  0  0  0  0  0999 V2000
   28.7343   -1.0216   -9.3619 C   0  0  0  0  0  0  0  0  0  0  0  0
   27.3920   -0.1653   -8.5851 S   0  0  1  0  0  6  0  0  0  0  0  0
   27.1695   -0.5598   -7.1725 O   0  0  0  0  0  0  0  0  0  0  0  0
   27.8071    1.3037   -8.5529 O   0  0  0  0  0  0  0  0  0  0  0  0
   25.9077   -0.2597   -9.5174 C   0  0  0  0  0  0  0  0  0  0  0  0
   24.7611   -0.8042   -8.9806 C   0  0  0  0  0  0  0  0  0  0  0  0
   23.6037   -0.8565   -9.7099 C   0  0  0  0  0  0  0  0  0  0  0  0
   23.5939   -0.3491  -11.0146 C   0  0  0  0  0  0  0  0  0  0  0  0
   22.3833   -0.4397  -11.6786 O   0  0  0  0  0  0  0  0  0  0  0  0
   21.1699   -0.4493  -11.0431 C   0  0  0  0  0  0  0  0  0  0  0  0
   20.6488    0.6253  -10.3653 C   0  0  0  0  0  0  0  0  0  0  0  0
   19.4113    0.5140   -9.7520 C   0  0  0  0  0  0  0  0  0  0  0  0
   18.9076    1.5928   -9.0793 F   0  0  0  0  0  0  0  0  0  0  0  0
   18.6775   -0.6569   -9.8028 C   0  0  0  0  0  0  0  0  0  0  0  0
   19.1880   -1.7607  -10.4866 C   0  0  0  0  0  0  0  0  0  0  0  0
   18.4064   -2.9555  -10.5263 C   0  0  0  0  0  0  0  0  0  0  0  0
   17.7714   -3.9547  -10.5727 N   0  0  0  0  0  0  0  0  0  0  0  0
   20.4050   -1.6211  -11.0779 C   0  0  0  0  0  0  0  0  0  0  0  0
   24.7193    0.1956  -11.5717 C   0  0  0  0  0  0  0  0  0  0  0  0
   25.8891    0.2350  -10.7994 C   0  0  0  0  0  0  0  0  0  0  0  0
   26.9637    0.8691  -11.6305 C   0  0  1  0  0  0  0  0  0  0  0  0
   28.2067    0.2799  -11.3871 O   0  0  0  0  0  0  0  0  0  0  0  0
   26.5076    0.4980  -13.0222 C   0  0  1  0  0  0  0  0  0  0  0  0
   26.6413   -0.8608  -13.1844 F   0  0  0  0  0  0  0  0  0  0  0  0
   25.0023    0.7801  -12.9005 C   0  0  0  0  0  0  0  0  0  0  0  0
  1  2  1  1
  2  3  2  0
  2  4  2  0
  2  5  1  6
  5  6  2  0
  6  7  1  0
  7  8  2  0
  8  9  1  0
  9 10  1  0
 10 11  2  0
 11 12  1  0
 12 13  1  0
 12 14  2  0
 14 15  1  0
 15 16  1  0
 16 17  3  0
 15 18  2  0
  8 19  1  0
 19 20  2  0
 20 21  1  0
 21 22  1  1
 21 23  1  0
 23 24  1  1
 23 25  1  0
 20  5  1  0
 18 10  1  0
 25 19  1  1
M  END
$$$$
