_rank8
     RDKit          3D

 25 27  0  0  0  0  0  0  0  0999 V2000
   28.1001    1.0717   -7.8097 C   0  0  0  0  0  0  0  0  0  0  0  0
   27.7190   -0.4348   -8.6602 S   0  0  1  0  0  6  0  0  0  0  0  0
   28.8361   -0.9530   -9.4872 O   0  0  0  0  0  0  0  0  0  0  0  0
   27.4855   -1.4747   -7.5667 O   0  0  0  0  0  0  0  0  0  0  0  0
   26.2335   -0.3229   -9.5887 C   0  0  0  0  0  0  0  0  0  0  0  0
   25.0324   -0.7539   -9.0683 C   0  0  0  0  0  0  0  0  0  0  0  0
   23.8765   -0.6453   -9.7938 C   0  0  0  0  0  0  0  0  0  0  0  0
   23.9244   -0.0893  -11.0776 C   0  0  0  0  0  0  0  0  0  0  0  0
   22.7113   -0.0152  -11.7391 O   0  0  0  0  0  0  0  0  0  0  0  0
   21.5271   -0.4425  -11.1992 C   0  0  0  0  0  0  0  0  0  0  0  0
   21.0806   -1.7399  -11.2553 C   0  0  0  0  0  0  0  0  0  0  0  0
   19.8646   -2.0715  -10.6798 C   0  0  0  0  0  0  0  0  0  0  0  0
   19.4335   -3.3677  -10.7463 F   0  0  0  0  0  0  0  0  0  0  0  0
   19.0797   -1.1273  -10.0438 C   0  0  0  0  0  0  0  0  0  0  0  0
   19.5146    0.1966   -9.9749 C   0  0  0  0  0  0  0  0  0  0  0  0
   18.6856    1.1494   -9.3082 C   0  0  0  0  0  0  0  0  0  0  0  0
   17.9812    1.9295   -8.7613 N   0  0  0  0  0  0  0  0  0  0  0  0
   20.7119    0.4915  -10.5492 C   0  0  0  0  0  0  0  0  0  0  0  0
   25.1046    0.3452  -11.6182 C   0  0  0  0  0  0  0  0  0  0  0  0
   26.2713    0.2208  -10.8503 C   0  0  0  0  0  0  0  0  0  0  0  0
   27.4110    0.7605  -11.6609 C   0  0  1  0  0  0  0  0  0  0  0  0
   28.5789    0.0244  -11.4465 O   0  0  0  0  0  0  0  0  0  0  0  0
   26.9155    0.4988  -13.0640 C   0  0  1  0  0  0  0  0  0  0  0  0
   26.8935   -0.8590  -13.2797 F   0  0  0  0  0  0  0  0  0  0  0  0
   25.4522    0.9454  -12.9244 C   0  0  0  0  0  0  0  0  0  0  0  0
  1  2  1  1
  2  3  2  0
  2  4  2  0
  2  5  1  6
  5  6  2  0
  6  7  1  0
  7  8  2  0
  8  9  1  0
  9 10  1  0
 10 11  2  0
 11 12  1  0
 12 13  1  0
 12 14  2  0
 14 15  1  0
 15 16  1  0
 16 17  3  0
 15 18  2  0
  8 19  1  0
 19 20  2  0
 20 21  1  0
 21 22  1  1
 21 23  1  0
 23 24  1  1
 23 25  1  0
 20  5  1  0
 18 10  1  0
 25 19  1  1
M  END
$$$$
