_rank14
     RDKit          3D

 25 27  0  0  0  0  0  0  0  0999 V2000
   28.8455   -1.0093   -9.6320 C   0  0  0  0  0  0  0  0  0  0  0  0
   27.4786   -0.2944   -8.7609 S   0  0  1  0  0  6  0  0  0  0  0  0
   27.2559   -0.8789   -7.4159 O   0  0  0  0  0  0  0  0  0  0  0  0
   27.8594    1.1660   -8.5290 O   0  0  0  0  0  0  0  0  0  0  0  0
   26.0031   -0.2960   -9.7118 C   0  0  0  0  0  0  0  0  0  0  0  0
   24.8143   -0.7514   -9.1839 C   0  0  0  0  0  0  0  0  0  0  0  0
   23.6653   -0.7314   -9.9279 C   0  0  0  0  0  0  0  0  0  0  0  0
   23.7076   -0.2415  -11.2386 C   0  0  0  0  0  0  0  0  0  0  0  0
   22.5021   -0.2552  -11.9176 O   0  0  0  0  0  0  0  0  0  0  0  0
   21.3190   -0.6515  -11.3523 C   0  0  0  0  0  0  0  0  0  0  0  0
   20.8371   -1.9365  -11.3994 C   0  0  0  0  0  0  0  0  0  0  0  0
   19.6256   -2.2365  -10.7976 C   0  0  0  0  0  0  0  0  0  0  0  0
   19.1589   -3.5207  -10.8554 F   0  0  0  0  0  0  0  0  0  0  0  0
   18.8801   -1.2726  -10.1442 C   0  0  0  0  0  0  0  0  0  0  0  0
   19.3513    0.0392  -10.0840 C   0  0  0  0  0  0  0  0  0  0  0  0
   18.5626    1.0130   -9.3988 C   0  0  0  0  0  0  0  0  0  0  0  0
   17.9194    1.8177   -8.8135 N   0  0  0  0  0  0  0  0  0  0  0  0
   20.5432    0.3030  -10.6842 C   0  0  0  0  0  0  0  0  0  0  0  0
   24.8756    0.2152  -11.7872 C   0  0  0  0  0  0  0  0  0  0  0  0
   26.0355    0.1822  -10.9998 C   0  0  0  0  0  0  0  0  0  0  0  0
   27.1625    0.7281  -11.8240 C   0  0  1  0  0  0  0  0  0  0  0  0
   28.3577    0.0560  -11.5570 O   0  0  0  0  0  0  0  0  0  0  0  0
   26.6987    0.3721  -13.2171 C   0  0  1  0  0  0  0  0  0  0  0  0
   26.7382   -0.9947  -13.3611 F   0  0  0  0  0  0  0  0  0  0  0  0
   25.2157    0.7611  -13.1189 C   0  0  0  0  0  0  0  0  0  0  0  0
  1  2  1  1
  2  3  2  0
  2  4  2  0
  2  5  1  6
  5  6  2  0
  6  7  1  0
  7  8  2  0
  8  9  1  0
  9 10  1  0
 10 11  2  0
 11 12  1  0
 12 13  1  0
 12 14  2  0
 14 15  1  0
 15 16  1  0
 16 17  3  0
 15 18  2  0
  8 19  1  0
 19 20  2  0
 20 21  1  0
 21 22  1  1
 21 23  1  0
 23 24  1  1
 23 25  1  0
 20  5  1  0
 18 10  1  0
 25 19  1  1
M  END
$$$$
