_rank19
     RDKit          3D

 19 20  0  0  0  0  0  0  0  0999 V2000
   22.1852    0.4174  -13.9396 C   0  0  0  0  0  0  0  0  0  0  0  0
   21.7397   -1.0174  -13.8164 C   0  0  0  0  0  0  0  0  0  0  0  0
   21.6712   -1.4349  -12.3376 C   0  0  2  0  0  0  0  0  0  0  0  0
   20.2744   -1.3083  -11.8969 C   0  0  0  0  0  0  0  0  0  0  0  0
   20.0422   -0.8128  -10.5177 C   0  0  0  0  0  0  0  0  0  0  0  0
   21.2025   -1.1292   -9.6139 C   0  0  1  0  0  0  0  0  0  0  0  0
   21.4377   -2.5189   -9.4437 N   0  0  0  0  0  0  0  0  0  0  0  0
   22.3888   -0.3709  -10.1619 C   0  0  1  0  0  0  0  0  0  0  0  0
   23.4606   -0.6162   -9.3008 O   0  0  0  0  0  0  0  0  0  0  0  0
   24.7907   -0.4475   -9.5385 C   0  0  0  0  0  0  0  0  0  0  0  0
   25.1809   -0.4791  -10.8855 C   0  0  0  0  0  0  0  0  0  0  0  0
   26.4992   -0.3166  -11.1950 C   0  0  0  0  0  0  0  0  0  0  0  0
   26.8959   -0.3447  -12.5018 F   0  0  0  0  0  0  0  0  0  0  0  0
   27.4575   -0.1222  -10.2185 C   0  0  0  0  0  0  0  0  0  0  0  0
   27.0845   -0.0902   -8.9037 C   0  0  0  0  0  0  0  0  0  0  0  0
   28.1033    0.1147   -7.8929 C   0  0  0  0  0  0  0  0  0  0  0  0
   28.9279    0.2787   -7.1028 N   0  0  0  0  0  0  0  0  0  0  0  0
   25.7492   -0.2535   -8.5684 C   0  0  0  0  0  0  0  0  0  0  0  0
   22.7184   -0.7381  -11.5755 C   0  0  0  0  0  0  0  0  0  0  0  0
  2  1  1  6
  3  2  1  6
  4  3  1  6
  5  4  1  6
  5  6  1  0
  6  7  1  6
  6  8  1  0
  8  9  1  1
  9 10  1  0
 10 11  2  0
 11 12  1  0
 12 13  1  0
 12 14  2  0
 14 15  1  0
 15 16  1  0
 16 17  3  0
 15 18  2  0
 19  8  1  6
 19  3  1  0
 18 10  1  0
M  END
$$$$
