_rank14
     RDKit          3D

 19 20  0  0  0  0  0  0  0  0999 V2000
   28.5999    0.3707  -12.5888 C   0  0  0  0  0  0  0  0  0  0  0  0
   28.6451   -0.6556  -11.4856 C   0  0  0  0  0  0  0  0  0  0  0  0
   27.6104   -0.3223  -10.3974 C   0  0  2  0  0  0  0  0  0  0  0  0
   27.8153   -1.2543   -9.2790 C   0  0  0  0  0  0  0  0  0  0  0  0
   26.6036   -1.7499   -8.5805 C   0  0  0  0  0  0  0  0  0  0  0  0
   25.4658   -0.7714   -8.6855 C   0  0  1  0  0  0  0  0  0  0  0  0
   25.7260    0.4824   -8.0724 N   0  0  0  0  0  0  0  0  0  0  0  0
   25.1210   -0.6744  -10.1533 C   0  0  1  0  0  0  0  0  0  0  0  0
   24.0314    0.1928  -10.2581 O   0  0  0  0  0  0  0  0  0  0  0  0
   22.7128   -0.1198  -10.3909 C   0  0  0  0  0  0  0  0  0  0  0  0
   22.3572   -0.7842  -11.5740 C   0  0  0  0  0  0  0  0  0  0  0  0
   21.0520   -1.1272  -11.7719 C   0  0  0  0  0  0  0  0  0  0  0  0
   20.6889   -1.7745  -12.9186 F   0  0  0  0  0  0  0  0  0  0  0  0
   20.0740   -0.8378  -10.8395 C   0  0  0  0  0  0  0  0  0  0  0  0
   20.4133   -0.1906   -9.6842 C   0  0  0  0  0  0  0  0  0  0  0  0
   19.3742    0.1048   -8.7174 C   0  0  0  0  0  0  0  0  0  0  0  0
   18.5571    0.3293   -7.9344 N   0  0  0  0  0  0  0  0  0  0  0  0
   21.7347    0.1667   -9.4642 C   0  0  0  0  0  0  0  0  0  0  0  0
   26.2717   -0.2232  -10.9982 C   0  0  0  0  0  0  0  0  0  0  0  0
  2  1  1  6
  3  2  1  6
  4  3  1  6
  5  4  1  6
  5  6  1  0
  6  7  1  6
  6  8  1  0
  8  9  1  1
  9 10  1  0
 10 11  2  0
 11 12  1  0
 12 13  1  0
 12 14  2  0
 14 15  1  0
 15 16  1  0
 16 17  3  0
 15 18  2  0
 19  8  1  6
 19  3  1  0
 18 10  1  0
M  END
$$$$
