_rank17
     RDKit          3D

 19 20  0  0  0  0  0  0  0  0999 V2000
   19.6190   -0.4789  -13.6305 C   0  0  0  0  0  0  0  0  0  0  0  0
   20.4202   -1.7014  -13.2619 C   0  0  0  0  0  0  0  0  0  0  0  0
   20.6793   -1.7385  -11.7461 C   0  0  2  0  0  0  0  0  0  0  0  0
   19.5591   -1.0584  -11.0799 C   0  0  0  0  0  0  0  0  0  0  0  0
   19.8814   -0.2254   -9.8950 C   0  0  0  0  0  0  0  0  0  0  0  0
   21.1275   -0.7069   -9.2032 C   0  0  1  0  0  0  0  0  0  0  0  0
   21.0237   -2.0224   -8.6794 N   0  0  0  0  0  0  0  0  0  0  0  0
   22.2583   -0.5288  -10.1892 C   0  0  1  0  0  0  0  0  0  0  0  0
   23.4296   -0.9248   -9.5398 O   0  0  0  0  0  0  0  0  0  0  0  0
   24.7151   -0.5882   -9.8367 C   0  0  0  0  0  0  0  0  0  0  0  0
   24.9498   -0.1708  -11.1552 C   0  0  0  0  0  0  0  0  0  0  0  0
   26.2158    0.1813  -11.5208 C   0  0  0  0  0  0  0  0  0  0  0  0
   26.4615    0.5900  -12.8008 F   0  0  0  0  0  0  0  0  0  0  0  0
   27.2699    0.1375  -10.6282 C   0  0  0  0  0  0  0  0  0  0  0  0
   27.0485   -0.2683   -9.3417 C   0  0  0  0  0  0  0  0  0  0  0  0
   28.1661   -0.3080   -8.4191 C   0  0  0  0  0  0  0  0  0  0  0  0
   29.0476   -0.3244   -7.6749 N   0  0  0  0  0  0  0  0  0  0  0  0
   25.7687   -0.6303   -8.9503 C   0  0  0  0  0  0  0  0  0  0  0  0
   22.0495   -1.2843  -11.4650 C   0  0  0  0  0  0  0  0  0  0  0  0
  2  1  1  6
  3  2  1  6
  4  3  1  6
  5  4  1  6
  5  6  1  0
  6  7  1  6
  6  8  1  0
  8  9  1  1
  9 10  1  0
 10 11  2  0
 11 12  1  0
 12 13  1  0
 12 14  2  0
 14 15  1  0
 15 16  1  0
 16 17  3  0
 15 18  2  0
 19  8  1  6
 19  3  1  0
 18 10  1  0
M  END
$$$$
