_rank12
     RDKit          3D

 19 20  0  0  0  0  0  0  0  0999 V2000
   19.5417    0.9734   -8.3585 C   0  0  0  0  0  0  0  0  0  0  0  0
   19.3695    1.2783   -9.8247 C   0  0  0  0  0  0  0  0  0  0  0  0
   20.0311    0.1867  -10.6830 C   0  0  2  0  0  0  0  0  0  0  0  0
   19.2960   -1.0674  -10.4637 C   0  0  0  0  0  0  0  0  0  0  0  0
   20.0922   -2.3184  -10.4127 C   0  0  0  0  0  0  0  0  0  0  0  0
   21.3650   -2.1964  -11.2055 C   0  0  1  0  0  0  0  0  0  0  0  0
   21.1604   -1.9767  -12.5931 N   0  0  0  0  0  0  0  0  0  0  0  0
   22.1860   -1.1224  -10.5309 C   0  0  1  0  0  0  0  0  0  0  0  0
   23.3929   -1.0358  -11.2281 O   0  0  0  0  0  0  0  0  0  0  0  0
   24.6353   -0.7731  -10.7366 C   0  0  0  0  0  0  0  0  0  0  0  0
   24.8045   -0.9769   -9.3591 C   0  0  0  0  0  0  0  0  0  0  0  0
   26.0246   -0.7328   -8.8005 C   0  0  0  0  0  0  0  0  0  0  0  0
   26.2063   -0.9262   -7.4606 F   0  0  0  0  0  0  0  0  0  0  0  0
   27.0951   -0.2912   -9.5546 C   0  0  0  0  0  0  0  0  0  0  0  0
   26.9375   -0.0904  -10.8976 C   0  0  0  0  0  0  0  0  0  0  0  0
   28.0714    0.3732  -11.6729 C   0  0  0  0  0  0  0  0  0  0  0  0
   28.9772    0.7234  -12.2958 N   0  0  0  0  0  0  0  0  0  0  0  0
   25.7050   -0.3328  -11.4844 C   0  0  0  0  0  0  0  0  0  0  0  0
   21.4859    0.1997  -10.4686 C   0  0  0  0  0  0  0  0  0  0  0  0
  2  1  1  6
  3  2  1  1
  4  3  1  6
  5  4  1  6
  5  6  1  0
  6  7  1  6
  6  8  1  0
  8  9  1  6
  9 10  1  0
 10 11  2  0
 11 12  1  0
 12 13  1  0
 12 14  2  0
 14 15  1  0
 15 16  1  0
 16 17  3  0
 15 18  2  0
 19  8  1  6
 19  3  1  0
 18 10  1  0
M  END
$$$$
