_rank4
     RDKit          3D

 19 20  0  0  0  0  0  0  0  0999 V2000
   19.9420    2.0689   -9.4727 C   0  0  0  0  0  0  0  0  0  0  0  0
   19.1575    1.2153  -10.4362 C   0  0  0  0  0  0  0  0  0  0  0  0
   19.8869   -0.1140  -10.6949 C   0  0  2  0  0  0  0  0  0  0  0  0
   19.2852   -1.1358   -9.8258 C   0  0  0  0  0  0  0  0  0  0  0  0
   20.1996   -2.1407   -9.2296 C   0  0  0  0  0  0  0  0  0  0  0  0
   21.4226   -2.3492  -10.0806 C   0  0  1  0  0  0  0  0  0  0  0  0
   21.1434   -2.8644  -11.3737 N   0  0  0  0  0  0  0  0  0  0  0  0
   22.1622   -1.0318  -10.0938 C   0  0  1  0  0  0  0  0  0  0  0  0
   23.3269   -1.2274  -10.8392 O   0  0  0  0  0  0  0  0  0  0  0  0
   24.5695   -0.7185  -10.6136 C   0  0  0  0  0  0  0  0  0  0  0  0
   25.1818   -0.0901  -11.7081 C   0  0  0  0  0  0  0  0  0  0  0  0
   26.4278    0.4421  -11.5517 C   0  0  0  0  0  0  0  0  0  0  0  0
   27.0382    1.0574  -12.6075 F   0  0  0  0  0  0  0  0  0  0  0  0
   27.1005    0.3783  -10.3463 C   0  0  0  0  0  0  0  0  0  0  0  0
   26.5099   -0.2326   -9.2754 C   0  0  0  0  0  0  0  0  0  0  0  0
   27.2304   -0.2902   -8.0186 C   0  0  0  0  0  0  0  0  0  0  0  0
   27.8181   -0.3247   -7.0264 N   0  0  0  0  0  0  0  0  0  0  0  0
   25.2436   -0.7798   -9.4139 C   0  0  0  0  0  0  0  0  0  0  0  0
   21.3411    0.0972  -10.6349 C   0  0  0  0  0  0  0  0  0  0  0  0
  2  1  1  6
  3  2  1  1
  4  3  1  6
  5  4  1  6
  5  6  1  0
  6  7  1  6
  6  8  1  0
  8  9  1  6
  9 10  1  0
 10 11  2  0
 11 12  1  0
 12 13  1  0
 12 14  2  0
 14 15  1  0
 15 16  1  0
 16 17  3  0
 15 18  2  0
 19  8  1  6
 19  3  1  0
 18 10  1  0
M  END
$$$$
