_rank20
     RDKit          3D

 19 20  0  0  0  0  0  0  0  0999 V2000
   21.6847   -0.9660  -14.2994 C   0  0  0  0  0  0  0  0  0  0  0  0
   22.3015   -2.0532  -13.4568 C   0  0  0  0  0  0  0  0  0  0  0  0
   21.8644   -1.9102  -11.9890 C   0  0  2  0  0  0  0  0  0  0  0  0
   20.5453   -1.2615  -11.9718 C   0  0  0  0  0  0  0  0  0  0  0  0
   20.2853   -0.2854  -10.8849 C   0  0  0  0  0  0  0  0  0  0  0  0
   21.1107   -0.5854   -9.6634 C   0  0  1  0  0  0  0  0  0  0  0  0
   20.8253   -1.8432   -9.0701 N   0  0  0  0  0  0  0  0  0  0  0  0
   22.5551   -0.4161  -10.0729 C   0  0  1  0  0  0  0  0  0  0  0  0
   23.3296   -0.6421   -8.9330 O   0  0  0  0  0  0  0  0  0  0  0  0
   24.6852   -0.7250   -8.8357 C   0  0  0  0  0  0  0  0  0  0  0  0
   25.2227   -2.0204   -8.8606 C   0  0  0  0  0  0  0  0  0  0  0  0
   26.5745   -2.1762   -8.7673 C   0  0  0  0  0  0  0  0  0  0  0  0
   27.1142   -3.4308   -8.7899 F   0  0  0  0  0  0  0  0  0  0  0  0
   27.4255   -1.0939   -8.6491 C   0  0  0  0  0  0  0  0  0  0  0  0
   26.9086    0.1715   -8.6242 C   0  0  0  0  0  0  0  0  0  0  0  0
   27.8163    1.2950   -8.4997 C   0  0  0  0  0  0  0  0  0  0  0  0
   28.5488    2.1792   -8.3866 N   0  0  0  0  0  0  0  0  0  0  0  0
   25.5371    0.3510   -8.7178 C   0  0  0  0  0  0  0  0  0  0  0  0
   22.9547   -1.3152  -11.2016 C   0  0  0  0  0  0  0  0  0  0  0  0
  2  1  1  6
  3  2  1  6
  4  3  1  6
  5  4  1  6
  5  6  1  0
  6  7  1  6
  6  8  1  0
  8  9  1  1
  9 10  1  0
 10 11  2  0
 11 12  1  0
 12 13  1  0
 12 14  2  0
 14 15  1  0
 15 16  1  0
 16 17  3  0
 15 18  2  0
 19  8  1  6
 19  3  1  0
 18 10  1  0
M  END
$$$$
