_rank15
     RDKit          3D

 19 20  0  0  0  0  0  0  0  0999 V2000
   19.9395   -1.4784   -8.3481 C   0  0  0  0  0  0  0  0  0  0  0  0
   19.2640   -0.6317   -9.3966 C   0  0  0  0  0  0  0  0  0  0  0  0
   20.2062   -0.3994  -10.5901 C   0  0  2  0  0  0  0  0  0  0  0  0
   19.7935   -1.3030  -11.6737 C   0  0  0  0  0  0  0  0  0  0  0  0
   20.8698   -1.9143  -12.4920 C   0  0  0  0  0  0  0  0  0  0  0  0
   22.1035   -1.0536  -12.5146 C   0  0  1  0  0  0  0  0  0  0  0  0
   21.9054    0.2216  -13.1063 N   0  0  0  0  0  0  0  0  0  0  0  0
   22.6089   -0.9957  -11.0919 C   0  0  1  0  0  0  0  0  0  0  0  0
   23.7839   -0.2411  -11.1087 O   0  0  0  0  0  0  0  0  0  0  0  0
   24.7954   -0.2326  -10.1972 C   0  0  0  0  0  0  0  0  0  0  0  0
   24.4331   -0.5409   -8.8776 C   0  0  0  0  0  0  0  0  0  0  0  0
   25.3975   -0.5505   -7.9132 C   0  0  0  0  0  0  0  0  0  0  0  0
   25.0615   -0.8486   -6.6232 F   0  0  0  0  0  0  0  0  0  0  0  0
   26.7184   -0.2652   -8.2020 C   0  0  0  0  0  0  0  0  0  0  0  0
   27.0787    0.0360   -9.4858 C   0  0  0  0  0  0  0  0  0  0  0  0
   28.4690    0.3327   -9.7703 C   0  0  0  0  0  0  0  0  0  0  0  0
   29.5793    0.5685   -9.9771 N   0  0  0  0  0  0  0  0  0  0  0  0
   26.1132    0.0511  -10.4806 C   0  0  0  0  0  0  0  0  0  0  0  0
   21.6039   -0.4352  -10.1341 C   0  0  0  0  0  0  0  0  0  0  0  0
  2  1  1  6
  3  2  1  1
  4  3  1  6
  5  4  1  6
  5  6  1  0
  6  7  1  1
  6  8  1  0
  8  9  1  6
  9 10  1  0
 10 11  2  0
 11 12  1  0
 12 13  1  0
 12 14  2  0
 14 15  1  0
 15 16  1  0
 16 17  3  0
 15 18  2  0
 19  8  1  6
 19  3  1  0
 18 10  1  0
M  END
$$$$
