_rank5
     RDKit          3D

 19 20  0  0  0  0  0  0  0  0999 V2000
   19.8381    2.1874  -10.1004 C   0  0  0  0  0  0  0  0  0  0  0  0
   18.9170    1.0502  -10.4620 C   0  0  0  0  0  0  0  0  0  0  0  0
   19.7246   -0.2283  -10.7434 C   0  0  2  0  0  0  0  0  0  0  0  0
   19.2702   -1.2650   -9.8053 C   0  0  0  0  0  0  0  0  0  0  0  0
   20.3013   -2.1803   -9.2569 C   0  0  0  0  0  0  0  0  0  0  0  0
   21.4691   -2.3229  -10.1947 C   0  0  1  0  0  0  0  0  0  0  0  0
   21.1336   -2.8967  -11.4491 N   0  0  0  0  0  0  0  0  0  0  0  0
   22.1024   -0.9550  -10.2978 C   0  0  1  0  0  0  0  0  0  0  0  0
   23.2192   -1.0859  -11.1260 O   0  0  0  0  0  0  0  0  0  0  0  0
   24.4950   -0.6695  -10.8957 C   0  0  0  0  0  0  0  0  0  0  0  0
   25.2032   -0.2163  -12.0186 C   0  0  0  0  0  0  0  0  0  0  0  0
   26.4870    0.2157  -11.8593 C   0  0  0  0  0  0  0  0  0  0  0  0
   27.1907    0.6602  -12.9424 F   0  0  0  0  0  0  0  0  0  0  0  0
   27.1061    0.2182  -10.6238 C   0  0  0  0  0  0  0  0  0  0  0  0
   26.4220   -0.2221   -9.5252 C   0  0  0  0  0  0  0  0  0  0  0  0
   27.0873   -0.2123   -8.2372 C   0  0  0  0  0  0  0  0  0  0  0  0
   27.6043   -0.1903   -7.2060 N   0  0  0  0  0  0  0  0  0  0  0  0
   25.1159   -0.6652   -9.6662 C   0  0  0  0  0  0  0  0  0  0  0  0
   21.1587    0.0926  -10.8014 C   0  0  0  0  0  0  0  0  0  0  0  0
  2  1  1  6
  3  2  1  1
  4  3  1  6
  5  4  1  6
  5  6  1  0
  6  7  1  6
  6  8  1  0
  8  9  1  6
  9 10  1  0
 10 11  2  0
 11 12  1  0
 12 13  1  0
 12 14  2  0
 14 15  1  0
 15 16  1  0
 16 17  3  0
 15 18  2  0
 19  8  1  6
 19  3  1  0
 18 10  1  0
M  END
$$$$
