_rank15
     RDKit          3D

 16 16  0  0  0  0  0  0  0  0999 V2000
   27.4628    0.7836   -8.3203 C   0  0  0  0  0  0  0  0  0  0  0  0
   26.6673   -0.8327   -8.5113 S   0  0  0  0  0  0  0  0  0  0  0  0
   25.3371   -0.6706   -9.6866 C   0  0  0  0  0  0  0  0  0  0  0  0
   24.0065   -0.8297   -9.2835 C   0  0  0  0  0  0  0  0  0  0  0  0
   23.0041   -0.7015  -10.1987 C   0  0  0  0  0  0  0  0  0  0  0  0
   21.5593   -0.8508   -9.8763 C   0  0  1  0  0  0  0  0  0  0  0  0
   20.8256    0.2412  -10.3738 O   0  0  0  0  0  0  0  0  0  0  0  0
   21.0687   -2.0311  -10.6052 C   0  0  0  0  0  0  0  0  0  0  0  0
   20.6942   -2.9692  -11.1648 N   0  0  0  0  0  0  0  0  0  0  0  0
   23.3121   -0.4140  -11.5238 C   0  0  0  0  0  0  0  0  0  0  0  0
   24.6379   -0.2601  -11.9029 C   0  0  0  0  0  0  0  0  0  0  0  0
   25.6610   -0.3867  -10.9896 C   0  0  0  0  0  0  0  0  0  0  0  0
   27.3162   -0.1992  -11.4405 S   0  0  1  0  0  6  0  0  0  0  0  0
   28.0927    1.2071  -10.7265 C   0  0  0  0  0  0  0  0  0  0  0  0
   28.1140   -1.4620  -11.1439 O   0  0  0  0  0  0  0  0  0  0  0  0
   27.3928   -0.0341  -12.9519 O   0  0  0  0  0  0  0  0  0  0  0  0
  1  2  1  6
  2  3  1  0
  3  4  2  0
  4  5  1  0
  5  6  1  0
  6  7  1  6
  6  8  1  0
  8  9  3  0
  5 10  2  0
 10 11  1  0
 11 12  2  0
 13 12  1  1
 14 13  1  6
 13 15  2  0
 13 16  2  0
 12  3  1  0
M  END
$$$$
