_rank5
     RDKit          3D

 16 16  0  0  0  0  0  0  0  0999 V2000
   26.4257    0.8397  -13.5547 C   0  0  0  0  0  0  0  0  0  0  0  0
   26.9105    0.6473  -11.8199 S   0  0  0  0  0  0  0  0  0  0  0  0
   25.4982    0.0652  -10.9014 C   0  0  0  0  0  0  0  0  0  0  0  0
   24.2239    0.0618  -11.4799 C   0  0  0  0  0  0  0  0  0  0  0  0
   23.1570   -0.3877  -10.7598 C   0  0  0  0  0  0  0  0  0  0  0  0
   21.7633   -0.4337  -11.2785 C   0  0  1  0  0  0  0  0  0  0  0  0
   21.7598   -0.5004  -12.6834 O   0  0  0  0  0  0  0  0  0  0  0  0
   21.1657   -1.6956  -10.8141 C   0  0  0  0  0  0  0  0  0  0  0  0
   20.6844   -2.6858  -10.4656 N   0  0  0  0  0  0  0  0  0  0  0  0
   23.3439   -0.8385   -9.4577 C   0  0  0  0  0  0  0  0  0  0  0  0
   24.6156   -0.8267   -8.9028 C   0  0  0  0  0  0  0  0  0  0  0  0
   25.7027   -0.3756   -9.6180 C   0  0  0  0  0  0  0  0  0  0  0  0
   27.2922   -0.3527   -8.9464 S   0  0  1  0  0  6  0  0  0  0  0  0
   27.8504    1.2520   -8.4953 C   0  0  0  0  0  0  0  0  0  0  0  0
   27.4061   -1.3120   -7.7691 O   0  0  0  0  0  0  0  0  0  0  0  0
   28.2667   -0.8906   -9.9849 O   0  0  0  0  0  0  0  0  0  0  0  0
  1  2  1  6
  2  3  1  0
  3  4  2  0
  4  5  1  0
  5  6  1  0
  6  7  1  6
  6  8  1  0
  8  9  3  0
  5 10  2  0
 10 11  1  0
 11 12  2  0
 13 12  1  6
 14 13  1  6
 13 15  2  0
 13 16  2  0
 12  3  1  0
M  END
$$$$
