_rank3
     RDKit          3D

 16 16  0  0  0  0  0  0  0  0999 V2000
   26.0863    0.7869  -13.3152 C   0  0  0  0  0  0  0  0  0  0  0  0
   26.6752    0.0119  -11.7875 S   0  0  0  0  0  0  0  0  0  0  0  0
   25.2811   -0.2258  -10.7026 C   0  0  0  0  0  0  0  0  0  0  0  0
   23.9789   -0.2645  -11.2136 C   0  0  0  0  0  0  0  0  0  0  0  0
   22.9265   -0.4473  -10.3662 C   0  0  0  0  0  0  0  0  0  0  0  0
   21.5058   -0.5038  -10.8044 C   0  0  1  0  0  0  0  0  0  0  0  0
   21.3963   -0.1890  -12.1707 O   0  0  0  0  0  0  0  0  0  0  0  0
   21.0645   -1.9017  -10.6766 C   0  0  0  0  0  0  0  0  0  0  0  0
   20.7153   -2.9995  -10.5963 N   0  0  0  0  0  0  0  0  0  0  0  0
   23.1559   -0.5936   -9.0026 C   0  0  0  0  0  0  0  0  0  0  0  0
   24.4548   -0.5522   -8.5163 C   0  0  0  0  0  0  0  0  0  0  0  0
   25.5277   -0.3682   -9.3601 C   0  0  0  0  0  0  0  0  0  0  0  0
   27.1505   -0.3137   -8.7757 S   0  0  1  0  0  6  0  0  0  0  0  0
   27.9740    1.2041   -9.1046 C   0  0  0  0  0  0  0  0  0  0  0  0
   27.2124   -0.6480   -7.2912 O   0  0  0  0  0  0  0  0  0  0  0  0
   27.9504   -1.4145   -9.4582 O   0  0  0  0  0  0  0  0  0  0  0  0
  1  2  1  6
  2  3  1  0
  3  4  2  0
  4  5  1  0
  5  6  1  0
  6  7  1  6
  6  8  1  0
  8  9  3  0
  5 10  2  0
 10 11  1  0
 11 12  2  0
 13 12  1  6
 14 13  1  6
 13 15  2  0
 13 16  2  0
 12  3  1  0
M  END
$$$$
