_rank1
     RDKit          3D

 16 16  0  0  0  0  0  0  0  0999 V2000
   26.0611    0.7376  -13.3577 C   0  0  0  0  0  0  0  0  0  0  0  0
   26.6406    0.1089  -11.7607 S   0  0  0  0  0  0  0  0  0  0  0  0
   25.2192   -0.2422  -10.7441 C   0  0  0  0  0  0  0  0  0  0  0  0
   23.9639   -0.4571  -11.3239 C   0  0  0  0  0  0  0  0  0  0  0  0
   22.8896   -0.7242  -10.5279 C   0  0  0  0  0  0  0  0  0  0  0  0
   21.5143   -0.9675  -11.0409 C   0  0  1  0  0  0  0  0  0  0  0  0
   20.8975   -2.0113  -10.3282 O   0  0  0  0  0  0  0  0  0  0  0  0
   20.7216    0.2387  -10.7547 C   0  0  0  0  0  0  0  0  0  0  0  0
   20.1139    1.1966  -10.5386 N   0  0  0  0  0  0  0  0  0  0  0  0
   23.0503   -0.7807   -9.1480 C   0  0  0  0  0  0  0  0  0  0  0  0
   24.3036   -0.5646   -8.5931 C   0  0  0  0  0  0  0  0  0  0  0  0
   25.3978   -0.2938   -9.3844 C   0  0  0  0  0  0  0  0  0  0  0  0
   26.9648   -0.0221   -8.7143 S   0  0  1  0  0  6  0  0  0  0  0  0
   27.6532    1.5418   -9.1272 C   0  0  0  0  0  0  0  0  0  0  0  0
   26.9609   -0.2260   -7.2052 O   0  0  0  0  0  0  0  0  0  0  0  0
   27.9139   -1.0850   -9.2502 O   0  0  0  0  0  0  0  0  0  0  0  0
  1  2  1  6
  2  3  1  0
  3  4  2  0
  4  5  1  0
  5  6  1  0
  6  7  1  1
  6  8  1  0
  8  9  3  0
  5 10  2  0
 10 11  1  0
 11 12  2  0
 13 12  1  6
 14 13  1  6
 13 15  2  0
 13 16  2  0
 12  3  1  0
M  END
$$$$
