_rank14
     RDKit          3D

 16 16  0  0  0  0  0  0  0  0999 V2000
   27.4431   -2.3556  -11.5616 C   0  0  0  0  0  0  0  0  0  0  0  0
   26.7828   -0.6785  -11.7431 S   0  0  0  0  0  0  0  0  0  0  0  0
   25.3035   -0.5456  -10.7577 C   0  0  0  0  0  0  0  0  0  0  0  0
   24.0425   -0.7249  -11.3375 C   0  0  0  0  0  0  0  0  0  0  0  0
   22.9235   -0.6189  -10.5657 C   0  0  0  0  0  0  0  0  0  0  0  0
   21.5383   -0.7908  -11.0808 C   0  0  1  0  0  0  0  0  0  0  0  0
   21.3256   -2.1175  -11.4961 O   0  0  0  0  0  0  0  0  0  0  0  0
   20.6216   -0.5706   -9.9511 C   0  0  0  0  0  0  0  0  0  0  0  0
   19.8866   -0.4022   -9.0765 N   0  0  0  0  0  0  0  0  0  0  0  0
   23.0447   -0.3339   -9.2101 C   0  0  0  0  0  0  0  0  0  0  0  0
   24.3043   -0.1597   -8.6549 C   0  0  0  0  0  0  0  0  0  0  0  0
   25.4434   -0.2638   -9.4220 C   0  0  0  0  0  0  0  0  0  0  0  0
   27.0190   -0.0507   -8.7510 S   0  0  1  0  0  6  0  0  0  0  0  0
   27.9840    1.1661   -9.5746 C   0  0  0  0  0  0  0  0  0  0  0  0
   26.9467    0.2409   -7.2581 O   0  0  0  0  0  0  0  0  0  0  0  0
   27.7746   -1.3682   -8.8561 O   0  0  0  0  0  0  0  0  0  0  0  0
  1  2  1  6
  2  3  1  0
  3  4  2  0
  4  5  1  0
  5  6  1  0
  6  7  1  1
  6  8  1  0
  8  9  3  0
  5 10  2  0
 10 11  1  0
 11 12  2  0
 13 12  1  6
 14 13  1  6
 13 15  2  0
 13 16  2  0
 12  3  1  0
M  END
$$$$
