_rank20
     RDKit          3D

 16 16  0  0  0  0  0  0  0  0999 V2000
   23.0296    2.9033  -11.3163 C   0  0  0  0  0  0  0  0  0  0  0  0
   22.2105    1.3326  -10.9371 S   0  0  0  0  0  0  0  0  0  0  0  0
   23.4342    0.1939  -10.3184 C   0  0  0  0  0  0  0  0  0  0  0  0
   24.7037    0.6471   -9.9422 C   0  0  0  0  0  0  0  0  0  0  0  0
   25.6251   -0.2408   -9.4714 C   0  0  0  0  0  0  0  0  0  0  0  0
   27.0002    0.1349   -9.0452 C   0  0  1  0  0  0  0  0  0  0  0  0
   27.0657    0.2692   -7.6467 O   0  0  0  0  0  0  0  0  0  0  0  0
   27.8853   -0.9909   -9.3834 C   0  0  0  0  0  0  0  0  0  0  0  0
   28.5916   -1.8618   -9.6595 N   0  0  0  0  0  0  0  0  0  0  0  0
   25.2959   -1.5879   -9.3692 C   0  0  0  0  0  0  0  0  0  0  0  0
   24.0317   -2.0166   -9.7475 C   0  0  0  0  0  0  0  0  0  0  0  0
   23.0907   -1.1314  -10.2248 C   0  0  0  0  0  0  0  0  0  0  0  0
   21.5130   -1.6440  -10.7006 S   0  0  1  0  0  6  0  0  0  0  0  0
   21.2195   -1.5291  -12.4300 C   0  0  0  0  0  0  0  0  0  0  0  0
   21.2162   -3.0504  -10.1975 O   0  0  0  0  0  0  0  0  0  0  0  0
   20.4851   -0.7571  -10.0119 O   0  0  0  0  0  0  0  0  0  0  0  0
  1  2  1  6
  2  3  1  0
  3  4  2  0
  4  5  1  0
  5  6  1  0
  6  7  1  1
  6  8  1  0
  8  9  3  0
  5 10  2  0
 10 11  1  0
 11 12  2  0
 13 12  1  6
 14 13  1  6
 13 15  2  0
 13 16  2  0
 12  3  1  0
M  END
$$$$
