_rank16
     RDKit          3D

 16 16  0  0  0  0  0  0  0  0999 V2000
   26.5445    0.7969   -7.3565 C   0  0  0  0  0  0  0  0  0  0  0  0
   27.0513   -0.0882   -8.8536 S   0  0  0  0  0  0  0  0  0  0  0  0
   25.6385   -0.2273   -9.9314 C   0  0  0  0  0  0  0  0  0  0  0  0
   24.3539   -0.4000   -9.4039 C   0  0  0  0  0  0  0  0  0  0  0  0
   23.2867   -0.5041  -10.2462 C   0  0  0  0  0  0  0  0  0  0  0  0
   21.8825   -0.6892   -9.7907 C   0  0  1  0  0  0  0  0  0  0  0  0
   21.0624    0.3420  -10.2827 O   0  0  0  0  0  0  0  0  0  0  0  0
   21.3833   -1.9290  -10.4063 C   0  0  0  0  0  0  0  0  0  0  0  0
   21.0075   -2.9119  -10.8819 N   0  0  0  0  0  0  0  0  0  0  0  0
   23.4838   -0.4379  -11.6210 C   0  0  0  0  0  0  0  0  0  0  0  0
   24.7656   -0.2663  -12.1237 C   0  0  0  0  0  0  0  0  0  0  0  0
   25.8531   -0.1596  -11.2852 C   0  0  0  0  0  0  0  0  0  0  0  0
   27.4552    0.0541  -11.8899 S   0  0  1  0  0  6  0  0  0  0  0  0
   27.9048   -1.1014  -13.1360 C   0  0  0  0  0  0  0  0  0  0  0  0
   27.6744    1.4807  -12.3756 O   0  0  0  0  0  0  0  0  0  0  0  0
   28.4367   -0.1227  -10.7398 O   0  0  0  0  0  0  0  0  0  0  0  0
  1  2  1  6
  2  3  1  0
  3  4  2  0
  4  5  1  0
  5  6  1  0
  6  7  1  6
  6  8  1  0
  8  9  3  0
  5 10  2  0
 10 11  1  0
 11 12  2  0
 13 12  1  1
 14 13  1  6
 13 15  2  0
 13 16  2  0
 12  3  1  0
M  END
$$$$
