_rank19
     RDKit          3D

 16 16  0  0  0  0  0  0  0  0999 V2000
   24.9257    2.9732   -9.9706 C   0  0  0  0  0  0  0  0  0  0  0  0
   25.3744    1.5820  -11.0406 S   0  0  0  0  0  0  0  0  0  0  0  0
   24.4787    0.1404  -10.4959 C   0  0  0  0  0  0  0  0  0  0  0  0
   23.0851    0.0824  -10.6091 C   0  0  0  0  0  0  0  0  0  0  0  0
   22.4193   -1.0298  -10.1863 C   0  0  0  0  0  0  0  0  0  0  0  0
   20.9424   -1.1939  -10.2611 C   0  0  1  0  0  0  0  0  0  0  0  0
   20.3710   -0.1801  -11.0509 O   0  0  0  0  0  0  0  0  0  0  0  0
   20.6784   -2.4549  -10.9719 C   0  0  0  0  0  0  0  0  0  0  0  0
   20.4853   -3.4537  -11.5185 N   0  0  0  0  0  0  0  0  0  0  0  0
   23.1301   -2.0961   -9.6467 C   0  0  0  0  0  0  0  0  0  0  0  0
   24.5116   -2.0184   -9.5434 C   0  0  0  0  0  0  0  0  0  0  0  0
   25.1977   -0.9015   -9.9662 C   0  0  0  0  0  0  0  0  0  0  0  0
   26.9153   -0.7850   -9.8465 S   0  0  1  0  0  6  0  0  0  0  0  0
   27.7479   -0.9466  -11.3862 C   0  0  0  0  0  0  0  0  0  0  0  0
   27.3321    0.4994   -9.1423 O   0  0  0  0  0  0  0  0  0  0  0  0
   27.4171   -1.9053   -8.9461 O   0  0  0  0  0  0  0  0  0  0  0  0
  1  2  1  6
  2  3  1  0
  3  4  2  0
  4  5  1  0
  5  6  1  0
  6  7  1  6
  6  8  1  0
  8  9  3  0
  5 10  2  0
 10 11  1  0
 11 12  2  0
 13 12  1  6
 14 13  1  6
 13 15  2  0
 13 16  2  0
 12  3  1  0
M  END
$$$$
