_rank9
     RDKit          3D

 16 16  0  0  0  0  0  0  0  0999 V2000
   25.7568    0.4207  -13.4719 C   0  0  0  0  0  0  0  0  0  0  0  0
   26.5329    0.1240  -11.8621 S   0  0  0  0  0  0  0  0  0  0  0  0
   25.2682   -0.3784  -10.7110 C   0  0  0  0  0  0  0  0  0  0  0  0
   23.9790   -0.6877  -11.1588 C   0  0  0  0  0  0  0  0  0  0  0  0
   23.0263   -1.0699  -10.2614 C   0  0  0  0  0  0  0  0  0  0  0  0
   21.6282   -1.4199  -10.6309 C   0  0  1  0  0  0  0  0  0  0  0  0
   20.7322   -0.4443  -10.1581 O   0  0  0  0  0  0  0  0  0  0  0  0
   21.5389   -1.3709  -12.0988 C   0  0  0  0  0  0  0  0  0  0  0  0
   21.4731   -1.3128  -13.2502 N   0  0  0  0  0  0  0  0  0  0  0  0
   23.3435   -1.1490   -8.9099 C   0  0  0  0  0  0  0  0  0  0  0  0
   24.6278   -0.8380   -8.4866 C   0  0  0  0  0  0  0  0  0  0  0  0
   25.6004   -0.4505   -9.3814 C   0  0  0  0  0  0  0  0  0  0  0  0
   27.2034   -0.0594   -8.8756 S   0  0  1  0  0  6  0  0  0  0  0  0
   27.6400    1.6235   -9.1346 C   0  0  0  0  0  0  0  0  0  0  0  0
   27.4349   -0.4574   -7.4240 O   0  0  0  0  0  0  0  0  0  0  0  0
   28.1853   -0.9051   -9.6744 O   0  0  0  0  0  0  0  0  0  0  0  0
  1  2  1  6
  2  3  1  0
  3  4  2  0
  4  5  1  0
  5  6  1  0
  6  7  1  1
  6  8  1  0
  8  9  3  0
  5 10  2  0
 10 11  1  0
 11 12  2  0
 13 12  1  6
 14 13  1  6
 13 15  2  0
 13 16  2  0
 12  3  1  0
M  END
$$$$
