_rank6
     RDKit          3D

 16 16  0  0  0  0  0  0  0  0999 V2000
   25.7336    0.5957  -13.4070 C   0  0  0  0  0  0  0  0  0  0  0  0
   26.4792    0.2788  -11.7867 S   0  0  0  0  0  0  0  0  0  0  0  0
   25.2184   -0.3616  -10.7017 C   0  0  0  0  0  0  0  0  0  0  0  0
   23.9438   -0.6669  -11.1923 C   0  0  0  0  0  0  0  0  0  0  0  0
   22.9938   -1.1558  -10.3453 C   0  0  0  0  0  0  0  0  0  0  0  0
   21.6109   -1.5118  -10.7628 C   0  0  1  0  0  0  0  0  0  0  0  0
   20.8739   -2.0006   -9.6692 O   0  0  0  0  0  0  0  0  0  0  0  0
   20.9440   -0.2659  -11.1731 C   0  0  0  0  0  0  0  0  0  0  0  0
   20.4279    0.7093  -11.5137 N   0  0  0  0  0  0  0  0  0  0  0  0
   23.2992   -1.3467   -9.0022 C   0  0  0  0  0  0  0  0  0  0  0  0
   24.5690   -1.0376   -8.5360 C   0  0  0  0  0  0  0  0  0  0  0  0
   25.5387   -0.5431   -9.3798 C   0  0  0  0  0  0  0  0  0  0  0  0
   27.1237   -0.1525   -8.8200 S   0  0  1  0  0  6  0  0  0  0  0  0
   28.3823   -1.1985   -9.4619 C   0  0  0  0  0  0  0  0  0  0  0  0
   27.4552    1.3105   -9.0824 O   0  0  0  0  0  0  0  0  0  0  0  0
   27.1530   -0.2944   -7.3045 O   0  0  0  0  0  0  0  0  0  0  0  0
  1  2  1  6
  2  3  1  0
  3  4  2  0
  4  5  1  0
  5  6  1  0
  6  7  1  1
  6  8  1  0
  8  9  3  0
  5 10  2  0
 10 11  1  0
 11 12  2  0
 13 12  1  6
 14 13  1  6
 13 15  2  0
 13 16  2  0
 12  3  1  0
M  END
$$$$
