_rank4
     RDKit          3D

 16 16  0  0  0  0  0  0  0  0999 V2000
   26.7060    0.2794  -13.3652 C   0  0  0  0  0  0  0  0  0  0  0  0
   26.8117    0.7822  -11.6280 S   0  0  0  0  0  0  0  0  0  0  0  0
   25.3846    0.1467  -10.7697 C   0  0  0  0  0  0  0  0  0  0  0  0
   24.1373    0.0945  -11.4022 C   0  0  0  0  0  0  0  0  0  0  0  0
   23.0585   -0.3953  -10.7275 C   0  0  0  0  0  0  0  0  0  0  0  0
   21.6910   -0.4945  -11.3053 C   0  0  1  0  0  0  0  0  0  0  0  0
   21.7536   -0.8134  -12.6736 O   0  0  0  0  0  0  0  0  0  0  0  0
   21.0241   -1.6344  -10.6563 C   0  0  0  0  0  0  0  0  0  0  0  0
   20.5172   -2.5319  -10.1356 N   0  0  0  0  0  0  0  0  0  0  0  0
   23.2065   -0.8385   -9.4179 C   0  0  0  0  0  0  0  0  0  0  0  0
   24.4520   -0.7782   -8.8091 C   0  0  0  0  0  0  0  0  0  0  0  0
   25.5507   -0.2860   -9.4781 C   0  0  0  0  0  0  0  0  0  0  0  0
   27.1080   -0.2024   -8.7392 S   0  0  1  0  0  6  0  0  0  0  0  0
   27.8993    1.3565   -8.9227 C   0  0  0  0  0  0  0  0  0  0  0  0
   27.0429   -0.6026   -7.2712 O   0  0  0  0  0  0  0  0  0  0  0  0
   28.0107   -1.2423   -9.3883 O   0  0  0  0  0  0  0  0  0  0  0  0
  1  2  1  6
  2  3  1  0
  3  4  2  0
  4  5  1  0
  5  6  1  0
  6  7  1  6
  6  8  1  0
  8  9  3  0
  5 10  2  0
 10 11  1  0
 11 12  2  0
 13 12  1  6
 14 13  1  6
 13 15  2  0
 13 16  2  0
 12  3  1  0
M  END
$$$$
