_rank13
     RDKit          3D

 16 16  0  0  0  0  0  0  0  0999 V2000
   26.7485   -0.3773  -13.3334 C   0  0  0  0  0  0  0  0  0  0  0  0
   26.9081    0.3430  -11.6789 S   0  0  0  0  0  0  0  0  0  0  0  0
   25.4497   -0.0705  -10.7413 C   0  0  0  0  0  0  0  0  0  0  0  0
   24.1962   -0.1271  -11.3610 C   0  0  0  0  0  0  0  0  0  0  0  0
   23.0933   -0.4454  -10.6254 C   0  0  0  0  0  0  0  0  0  0  0  0
   21.7173   -0.5329  -11.1845 C   0  0  1  0  0  0  0  0  0  0  0  0
   21.7162   -1.2664  -12.3845 O   0  0  0  0  0  0  0  0  0  0  0  0
   20.9086   -1.3134  -10.2348 C   0  0  0  0  0  0  0  0  0  0  0  0
   20.2644   -1.9092   -9.4840 N   0  0  0  0  0  0  0  0  0  0  0  0
   23.2232   -0.7110   -9.2667 C   0  0  0  0  0  0  0  0  0  0  0  0
   24.4751   -0.6496   -8.6715 C   0  0  0  0  0  0  0  0  0  0  0  0
   25.5980   -0.3293   -9.4018 C   0  0  0  0  0  0  0  0  0  0  0  0
   27.1638   -0.2476   -8.6808 S   0  0  1  0  0  6  0  0  0  0  0  0
   28.2089   -1.5989   -9.0953 C   0  0  0  0  0  0  0  0  0  0  0  0
   27.8467    1.0765   -8.9965 O   0  0  0  0  0  0  0  0  0  0  0  0
   27.0030   -0.2535   -7.1670 O   0  0  0  0  0  0  0  0  0  0  0  0
  1  2  1  6
  2  3  1  0
  3  4  2  0
  4  5  1  0
  5  6  1  0
  6  7  1  6
  6  8  1  0
  8  9  3  0
  5 10  2  0
 10 11  1  0
 11 12  2  0
 13 12  1  6
 14 13  1  6
 13 15  2  0
 13 16  2  0
 12  3  1  0
M  END
$$$$
