_rank2
     RDKit          3D

 16 16  0  0  0  0  0  0  0  0999 V2000
   26.0702    1.0013  -13.3876 C   0  0  0  0  0  0  0  0  0  0  0  0
   26.6232    0.0652  -11.9386 S   0  0  0  0  0  0  0  0  0  0  0  0
   25.2483   -0.1003  -10.8164 C   0  0  0  0  0  0  0  0  0  0  0  0
   23.9384   -0.1847  -11.3017 C   0  0  0  0  0  0  0  0  0  0  0  0
   22.9011   -0.3109  -10.4259 C   0  0  0  0  0  0  0  0  0  0  0  0
   21.4740   -0.4084  -10.8354 C   0  0  1  0  0  0  0  0  0  0  0  0
   21.2787    0.1857  -12.0952 O   0  0  0  0  0  0  0  0  0  0  0  0
   21.1666   -1.8365  -11.0117 C   0  0  0  0  0  0  0  0  0  0  0  0
   20.9452   -2.9614  -11.1504 N   0  0  0  0  0  0  0  0  0  0  0  0
   23.1532   -0.3548   -9.0592 C   0  0  0  0  0  0  0  0  0  0  0  0
   24.4594   -0.2696   -8.5987 C   0  0  0  0  0  0  0  0  0  0  0  0
   25.5172   -0.1418   -9.4713 C   0  0  0  0  0  0  0  0  0  0  0  0
   27.1487   -0.0343   -8.9192 S   0  0  1  0  0  6  0  0  0  0  0  0
   28.0062    1.3832   -9.5069 C   0  0  0  0  0  0  0  0  0  0  0  0
   27.2223   -0.1154   -7.4003 O   0  0  0  0  0  0  0  0  0  0  0  0
   27.9109   -1.2559   -9.4135 O   0  0  0  0  0  0  0  0  0  0  0  0
  1  2  1  6
  2  3  1  0
  3  4  2  0
  4  5  1  0
  5  6  1  0
  6  7  1  6
  6  8  1  0
  8  9  3  0
  5 10  2  0
 10 11  1  0
 11 12  2  0
 13 12  1  1
 14 13  1  6
 13 15  2  0
 13 16  2  0
 12  3  1  0
M  END
$$$$
