_rank7
     RDKit          3D

 16 16  0  0  0  0  0  0  0  0999 V2000
   26.3730    0.9238  -13.3005 C   0  0  0  0  0  0  0  0  0  0  0  0
   26.9264    0.0881  -11.7916 S   0  0  0  0  0  0  0  0  0  0  0  0
   25.4927   -0.3125  -10.8112 C   0  0  0  0  0  0  0  0  0  0  0  0
   24.2385   -0.4670  -11.4127 C   0  0  0  0  0  0  0  0  0  0  0  0
   23.1547   -0.7735  -10.6443 C   0  0  0  0  0  0  0  0  0  0  0  0
   21.7798   -0.9592  -11.1818 C   0  0  1  0  0  0  0  0  0  0  0  0
   21.6861   -2.1676  -11.8951 O   0  0  0  0  0  0  0  0  0  0  0  0
   20.8757   -1.1007  -10.0295 C   0  0  0  0  0  0  0  0  0  0  0  0
   20.1577   -1.1941   -9.1299 N   0  0  0  0  0  0  0  0  0  0  0  0
   23.3045   -0.9298   -9.2708 C   0  0  0  0  0  0  0  0  0  0  0  0
   24.5567   -0.7724   -8.6942 C   0  0  0  0  0  0  0  0  0  0  0  0
   25.6606   -0.4628   -9.4575 C   0  0  0  0  0  0  0  0  0  0  0  0
   27.2263   -0.2627   -8.7601 S   0  0  1  0  0  6  0  0  0  0  0  0
   28.3273   -1.5926   -9.0910 C   0  0  0  0  0  0  0  0  0  0  0  0
   27.8476    1.0648   -9.1737 O   0  0  0  0  0  0  0  0  0  0  0  0
   27.0770   -0.1704   -7.2479 O   0  0  0  0  0  0  0  0  0  0  0  0
  1  2  1  6
  2  3  1  0
  3  4  2  0
  4  5  1  0
  5  6  1  0
  6  7  1  6
  6  8  1  0
  8  9  3  0
  5 10  2  0
 10 11  1  0
 11 12  2  0
 13 12  1  6
 14 13  1  6
 13 15  2  0
 13 16  2  0
 12  3  1  0
M  END
$$$$
