_rank17
     RDKit          3D

 16 16  0  0  0  0  0  0  0  0999 V2000
   26.7383   -3.1028  -11.7773 C   0  0  0  0  0  0  0  0  0  0  0  0
   27.0403   -1.5376  -10.9167 S   0  0  0  0  0  0  0  0  0  0  0  0
   25.4773   -0.8966  -10.3482 C   0  0  0  0  0  0  0  0  0  0  0  0
   24.2787   -1.3154  -10.9368 C   0  0  0  0  0  0  0  0  0  0  0  0
   23.0940   -0.8125  -10.4867 C   0  0  0  0  0  0  0  0  0  0  0  0
   21.7659   -1.1897  -11.0412 C   0  0  1  0  0  0  0  0  0  0  0  0
   21.4056   -2.4843  -10.6260 O   0  0  0  0  0  0  0  0  0  0  0  0
   20.7706   -0.2843  -10.4457 C   0  0  0  0  0  0  0  0  0  0  0  0
   19.9777    0.4238   -9.9945 N   0  0  0  0  0  0  0  0  0  0  0  0
   23.0867    0.1113   -9.4475 C   0  0  0  0  0  0  0  0  0  0  0  0
   24.2863    0.5133   -8.8776 C   0  0  0  0  0  0  0  0  0  0  0  0
   25.4906    0.0141   -9.3217 C   0  0  0  0  0  0  0  0  0  0  0  0
   26.9932    0.5010   -8.6267 S   0  0  1  0  0  6  0  0  0  0  0  0
   27.6866    1.9370   -9.3664 C   0  0  0  0  0  0  0  0  0  0  0  0
   26.8704    0.6791   -7.1192 O   0  0  0  0  0  0  0  0  0  0  0  0
   28.0003   -0.6264   -8.8066 O   0  0  0  0  0  0  0  0  0  0  0  0
  1  2  1  6
  2  3  1  0
  3  4  2  0
  4  5  1  0
  5  6  1  0
  6  7  1  1
  6  8  1  0
  8  9  3  0
  5 10  2  0
 10 11  1  0
 11 12  2  0
 13 12  1  6
 14 13  1  6
 13 15  2  0
 13 16  2  0
 12  3  1  0
M  END
$$$$
