_rank8
     RDKit          3D

 16 16  0  0  0  0  0  0  0  0999 V2000
   26.4301    0.9051  -13.6096 C   0  0  0  0  0  0  0  0  0  0  0  0
   26.7797    0.9289  -11.8323 S   0  0  0  0  0  0  0  0  0  0  0  0
   25.3704    0.2577  -10.9718 C   0  0  0  0  0  0  0  0  0  0  0  0
   24.0882    0.3481  -11.5252 C   0  0  0  0  0  0  0  0  0  0  0  0
   23.0237   -0.1720  -10.8503 C   0  0  0  0  0  0  0  0  0  0  0  0
   21.6221   -0.1295  -11.3478 C   0  0  1  0  0  0  0  0  0  0  0  0
   21.5787   -0.3923  -12.7287 O   0  0  0  0  0  0  0  0  0  0  0  0
   20.8964   -1.2361  -10.7043 C   0  0  0  0  0  0  0  0  0  0  0  0
   20.3418   -2.1171  -10.2045 N   0  0  0  0  0  0  0  0  0  0  0  0
   23.2210   -0.7872   -9.6191 C   0  0  0  0  0  0  0  0  0  0  0  0
   24.5004   -0.8663   -9.0880 C   0  0  0  0  0  0  0  0  0  0  0  0
   25.5852   -0.3456   -9.7581 C   0  0  0  0  0  0  0  0  0  0  0  0
   27.1842   -0.4335   -9.1152 S   0  0  1  0  0  6  0  0  0  0  0  0
   27.9094    1.1356   -8.7958 C   0  0  0  0  0  0  0  0  0  0  0  0
   27.2296   -1.3098   -7.8705 O   0  0  0  0  0  0  0  0  0  0  0  0
   28.0762   -1.1421  -10.1251 O   0  0  0  0  0  0  0  0  0  0  0  0
  1  2  1  6
  2  3  1  0
  3  4  2  0
  4  5  1  0
  5  6  1  0
  6  7  1  6
  6  8  1  0
  8  9  3  0
  5 10  2  0
 10 11  1  0
 11 12  2  0
 13 12  1  6
 14 13  1  6
 13 15  2  0
 13 16  2  0
 12  3  1  0
M  END
$$$$
