_rank11
     RDKit          3D

 16 16  0  0  0  0  0  0  0  0999 V2000
   26.2126    1.4806  -13.4852 C   0  0  0  0  0  0  0  0  0  0  0  0
   26.8292    0.4117  -12.1589 S   0  0  0  0  0  0  0  0  0  0  0  0
   25.4575   -0.0356  -11.1122 C   0  0  0  0  0  0  0  0  0  0  0  0
   24.1515   -0.0462  -11.6146 C   0  0  0  0  0  0  0  0  0  0  0  0
   23.1165   -0.3915  -10.7968 C   0  0  0  0  0  0  0  0  0  0  0  0
   21.6935   -0.4348  -11.2292 C   0  0  1  0  0  0  0  0  0  0  0  0
   21.5939   -0.8768  -12.5606 O   0  0  0  0  0  0  0  0  0  0  0  0
   21.0202   -1.4580  -10.4138 C   0  0  0  0  0  0  0  0  0  0  0  0
   20.5083   -2.2625   -9.7624 N   0  0  0  0  0  0  0  0  0  0  0  0
   23.3674   -0.7299   -9.4717 C   0  0  0  0  0  0  0  0  0  0  0  0
   24.6698   -0.7131   -8.9933 C   0  0  0  0  0  0  0  0  0  0  0  0
   25.7251   -0.3665   -9.8075 C   0  0  0  0  0  0  0  0  0  0  0  0
   27.3519   -0.3393   -9.2322 S   0  0  1  0  0  6  0  0  0  0  0  0
   27.5423   -0.9828   -7.6075 C   0  0  0  0  0  0  0  0  0  0  0  0
   28.2908   -1.0436  -10.2026 O   0  0  0  0  0  0  0  0  0  0  0  0
   27.8328    1.1048   -9.2013 O   0  0  0  0  0  0  0  0  0  0  0  0
  1  2  1  6
  2  3  1  0
  3  4  2  0
  4  5  1  0
  5  6  1  0
  6  7  1  6
  6  8  1  0
  8  9  3  0
  5 10  2  0
 10 11  1  0
 11 12  2  0
 13 12  1  6
 14 13  1  6
 13 15  2  0
 13 16  2  0
 12  3  1  0
M  END
$$$$
