_rank6
     RDKit          3D

 20 21  0  0  0  0  0  0  0  0999 V2000
   27.1264    0.1828  -12.9969 C   0  0  0  0  0  0  0  0  0  0  0  0
   25.9146    0.4501  -12.3593 O   0  0  0  0  0  0  0  0  0  0  0  0
   25.7538    0.1087  -11.0186 C   0  0  0  0  0  0  0  0  0  0  0  0
   26.8391   -0.0555  -10.2138 C   0  0  0  0  0  0  0  0  0  0  0  0
   26.6760   -0.3928   -8.8901 C   0  0  0  0  0  0  0  0  0  0  0  0
   27.8832   -0.5708   -8.0122 C   0  0  0  0  0  0  0  0  0  0  0  0
   28.3393    0.7144   -7.6686 O   0  0  0  0  0  0  0  0  0  0  0  0
   25.4278   -0.5679   -8.3639 C   0  0  0  0  0  0  0  0  0  0  0  0
   24.3174   -0.4039   -9.1723 C   0  0  0  0  0  0  0  0  0  0  0  0
   24.4796   -0.0702  -10.4799 C   0  0  0  0  0  0  0  0  0  0  0  0
   23.4335    0.1186  -11.3671 O   0  0  0  0  0  0  0  0  0  0  0  0
   22.1462   -0.2024  -11.0027 C   0  0  0  0  0  0  0  0  0  0  0  0
   21.6874   -1.4963  -11.2625 C   0  0  0  0  0  0  0  0  0  0  0  0
   20.4184   -1.8368  -10.9128 C   0  0  0  0  0  0  0  0  0  0  0  0
   19.9049   -3.1644  -11.1639 C   0  0  0  0  0  0  0  0  0  0  0  0
   19.5039   -4.2318  -11.3823 N   0  0  0  0  0  0  0  0  0  0  0  0
   19.5497   -0.9543  -10.3053 C   0  0  0  0  0  0  0  0  0  0  0  0
   20.0263    0.3150  -10.0605 C   0  0  0  0  0  0  0  0  0  0  0  0
   21.3137    0.7040  -10.4013 C   0  0  0  0  0  0  0  0  0  0  0  0
   21.7662    2.0397  -10.1485 N   0  0  0  0  0  0  0  0  0  0  0  0
  1  2  1  1
  2  3  1  0
  3  4  2  0
  4  5  1  0
  5  6  1  0
  6  7  1  1
  5  8  2  0
  8  9  1  0
  9 10  2  0
 10 11  1  0
 11 12  1  0
 12 13  2  0
 13 14  1  0
 14 15  1  0
 15 16  3  0
 14 17  2  0
 17 18  1  0
 18 19  2  0
 19 20  1  0
 10  3  1  0
 19 12  1  0
M  END
$$$$
