_rank16
     RDKit          3D

 20 21  0  0  0  0  0  0  0  0999 V2000
   28.0572   -1.4900  -12.0485 C   0  0  0  0  0  0  0  0  0  0  0  0
   26.9214   -0.6876  -11.9372 O   0  0  0  0  0  0  0  0  0  0  0  0
   26.3750   -0.4410  -10.6800 C   0  0  0  0  0  0  0  0  0  0  0  0
   27.1834   -0.1995   -9.6120 C   0  0  0  0  0  0  0  0  0  0  0  0
   26.6397    0.0436   -8.3718 C   0  0  0  0  0  0  0  0  0  0  0  0
   27.5441    0.3093   -7.2008 C   0  0  0  0  0  0  0  0  0  0  0  0
   28.7663   -0.3339   -7.4663 O   0  0  0  0  0  0  0  0  0  0  0  0
   25.2857    0.0463   -8.1925 C   0  0  0  0  0  0  0  0  0  0  0  0
   24.4542   -0.1982   -9.2706 C   0  0  0  0  0  0  0  0  0  0  0  0
   24.9923   -0.4377  -10.4955 C   0  0  0  0  0  0  0  0  0  0  0  0
   24.2459   -0.6898  -11.6341 O   0  0  0  0  0  0  0  0  0  0  0  0
   22.8992   -0.9551  -11.5381 C   0  0  0  0  0  0  0  0  0  0  0  0
   22.4609   -1.7931  -10.5095 C   0  0  0  0  0  0  0  0  0  0  0  0
   21.1350   -2.0711  -10.3950 C   0  0  0  0  0  0  0  0  0  0  0  0
   20.6402   -2.9331   -9.3456 C   0  0  0  0  0  0  0  0  0  0  0  0
   20.2279   -3.6124   -8.4992 N   0  0  0  0  0  0  0  0  0  0  0  0
   20.1881   -1.5587  -11.2572 C   0  0  0  0  0  0  0  0  0  0  0  0
   20.6462   -0.7356  -12.2626 C   0  0  0  0  0  0  0  0  0  0  0  0
   21.9901   -0.4265  -12.4156 C   0  0  0  0  0  0  0  0  0  0  0  0
   22.4300    0.4175  -13.4866 N   0  0  0  0  0  0  0  0  0  0  0  0
  1  2  1  1
  2  3  1  0
  3  4  2  0
  4  5  1  0
  5  6  1  0
  6  7  1  1
  5  8  2  0
  8  9  1  0
  9 10  2  0
 10 11  1  0
 11 12  1  0
 12 13  2  0
 13 14  1  0
 14 15  1  0
 15 16  3  0
 14 17  2  0
 17 18  1  0
 18 19  2  0
 19 20  1  0
 10  3  1  0
 19 12  1  0
M  END
$$$$
