_rank19
     RDKit          3D

 20 21  0  0  0  0  0  0  0  0999 V2000
   27.5633   -2.6099   -9.3971 C   0  0  0  0  0  0  0  0  0  0  0  0
   26.7298   -1.9392  -10.2926 O   0  0  0  0  0  0  0  0  0  0  0  0
   26.2243   -0.6863   -9.9539 C   0  0  0  0  0  0  0  0  0  0  0  0
   26.9155    0.1323   -9.1146 C   0  0  0  0  0  0  0  0  0  0  0  0
   26.4127    1.3692   -8.7825 C   0  0  0  0  0  0  0  0  0  0  0  0
   27.1866    2.2635   -7.8546 C   0  0  0  0  0  0  0  0  0  0  0  0
   27.6825    1.4546   -6.8165 O   0  0  0  0  0  0  0  0  0  0  0  0
   25.2168    1.7940   -9.2871 C   0  0  0  0  0  0  0  0  0  0  0  0
   24.5053    0.9704  -10.1409 C   0  0  0  0  0  0  0  0  0  0  0  0
   25.0031   -0.2511  -10.4688 C   0  0  0  0  0  0  0  0  0  0  0  0
   24.3690   -1.1447  -11.3152 O   0  0  0  0  0  0  0  0  0  0  0  0
   23.0116   -1.3485  -11.2206 C   0  0  0  0  0  0  0  0  0  0  0  0
   22.4800   -1.7024   -9.9778 C   0  0  0  0  0  0  0  0  0  0  0  0
   21.1416   -1.9104   -9.8596 C   0  0  0  0  0  0  0  0  0  0  0  0
   20.5517   -2.2778   -8.5923 C   0  0  0  0  0  0  0  0  0  0  0  0
   20.0890   -2.5588   -7.5652 N   0  0  0  0  0  0  0  0  0  0  0  0
   20.2708   -1.7873  -10.9222 C   0  0  0  0  0  0  0  0  0  0  0  0
   20.8202   -1.4379  -12.1364 C   0  0  0  0  0  0  0  0  0  0  0  0
   22.1799   -1.2168  -12.3008 C   0  0  0  0  0  0  0  0  0  0  0  0
   22.7162   -0.8745  -13.5847 N   0  0  0  0  0  0  0  0  0  0  0  0
  1  2  1  1
  2  3  1  0
  3  4  2  0
  4  5  1  0
  5  6  1  0
  6  7  1  1
  5  8  2  0
  8  9  1  0
  9 10  2  0
 10 11  1  0
 11 12  1  0
 12 13  2  0
 13 14  1  0
 14 15  1  0
 15 16  3  0
 14 17  2  0
 17 18  1  0
 18 19  2  0
 19 20  1  0
 10  3  1  0
 19 12  1  0
M  END
$$$$
