_rank4
     RDKit          3D

 20 21  0  0  0  0  0  0  0  0999 V2000
   26.5543    0.0843  -13.0993 C   0  0  0  0  0  0  0  0  0  0  0  0
   25.6168    0.6836  -12.2577 O   0  0  0  0  0  0  0  0  0  0  0  0
   25.5159    0.2650  -10.9332 C   0  0  0  0  0  0  0  0  0  0  0  0
   26.5538    0.4463  -10.0716 C   0  0  0  0  0  0  0  0  0  0  0  0
   26.4502    0.0313   -8.7640 C   0  0  0  0  0  0  0  0  0  0  0  0
   27.6040    0.2380   -7.8229 C   0  0  0  0  0  0  0  0  0  0  0  0
   28.7537    0.4249   -8.6110 O   0  0  0  0  0  0  0  0  0  0  0  0
   25.3091   -0.5670   -8.3108 C   0  0  0  0  0  0  0  0  0  0  0  0
   24.2478   -0.7568   -9.1774 C   0  0  0  0  0  0  0  0  0  0  0  0
   24.3510   -0.3460  -10.4690 C   0  0  0  0  0  0  0  0  0  0  0  0
   23.3457   -0.4885  -11.4103 O   0  0  0  0  0  0  0  0  0  0  0  0
   22.0342   -0.6137  -11.0135 C   0  0  0  0  0  0  0  0  0  0  0  0
   21.4472    0.4490  -10.3218 C   0  0  0  0  0  0  0  0  0  0  0  0
   20.1528    0.3482   -9.9181 C   0  0  0  0  0  0  0  0  0  0  0  0
   19.5081    1.4243   -9.2002 C   0  0  0  0  0  0  0  0  0  0  0  0
   19.0028    2.2856   -8.6079 N   0  0  0  0  0  0  0  0  0  0  0  0
   19.3801   -0.7681  -10.1617 C   0  0  0  0  0  0  0  0  0  0  0  0
   19.9826   -1.8018  -10.8449 C   0  0  0  0  0  0  0  0  0  0  0  0
   21.3004   -1.7404  -11.2745 C   0  0  0  0  0  0  0  0  0  0  0  0
   21.8978   -2.8447  -11.9648 N   0  0  0  0  0  0  0  0  0  0  0  0
  1  2  1  1
  2  3  1  0
  3  4  2  0
  4  5  1  0
  5  6  1  0
  6  7  1  1
  5  8  2  0
  8  9  1  0
  9 10  2  0
 10 11  1  0
 11 12  1  0
 12 13  2  0
 13 14  1  0
 14 15  1  0
 15 16  3  0
 14 17  2  0
 17 18  1  0
 18 19  2  0
 19 20  1  0
 10  3  1  0
 19 12  1  0
M  END
$$$$
