_rank10
     RDKit          3D

 20 21  0  0  0  0  0  0  0  0999 V2000
   27.2501    0.7328  -13.0320 C   0  0  0  0  0  0  0  0  0  0  0  0
   26.6477   -0.3838  -12.4516 O   0  0  0  0  0  0  0  0  0  0  0  0
   26.2930   -0.3510  -11.1052 C   0  0  0  0  0  0  0  0  0  0  0  0
   27.2518   -0.3002  -10.1405 C   0  0  0  0  0  0  0  0  0  0  0  0
   26.8973   -0.2679   -8.8116 C   0  0  0  0  0  0  0  0  0  0  0  0
   27.9664   -0.2116   -7.7563 C   0  0  0  0  0  0  0  0  0  0  0  0
   28.0532   -1.4937   -7.1849 O   0  0  0  0  0  0  0  0  0  0  0  0
   25.5832   -0.2865   -8.4399 C   0  0  0  0  0  0  0  0  0  0  0  0
   24.6000   -0.3384   -9.4115 C   0  0  0  0  0  0  0  0  0  0  0  0
   24.9512   -0.3697  -10.7242 C   0  0  0  0  0  0  0  0  0  0  0  0
   24.0434   -0.4193  -11.7685 O   0  0  0  0  0  0  0  0  0  0  0  0
   22.7630   -0.8757  -11.5556 C   0  0  0  0  0  0  0  0  0  0  0  0
   22.4603   -1.4449  -10.3159 C   0  0  0  0  0  0  0  0  0  0  0  0
   21.2021   -1.9044  -10.0824 C   0  0  0  0  0  0  0  0  0  0  0  0
   20.8477   -2.4999   -8.8140 C   0  0  0  0  0  0  0  0  0  0  0  0
   20.5798   -2.9704   -7.7870 N   0  0  0  0  0  0  0  0  0  0  0  0
   20.1959   -1.8348  -11.0232 C   0  0  0  0  0  0  0  0  0  0  0  0
   20.5203   -1.2696  -12.2370 C   0  0  0  0  0  0  0  0  0  0  0  0
   21.7913   -0.7888  -12.5170 C   0  0  0  0  0  0  0  0  0  0  0  0
   22.0953   -0.2259  -13.7990 N   0  0  0  0  0  0  0  0  0  0  0  0
  1  2  1  1
  2  3  1  0
  3  4  2  0
  4  5  1  0
  5  6  1  0
  6  7  1  1
  5  8  2  0
  8  9  1  0
  9 10  2  0
 10 11  1  0
 11 12  1  0
 12 13  2  0
 13 14  1  0
 14 15  1  0
 15 16  3  0
 14 17  2  0
 17 18  1  0
 18 19  2  0
 19 20  1  0
 10  3  1  0
 19 12  1  0
M  END
$$$$
