_rank20
     RDKit          3D

 20 21  0  0  0  0  0  0  0  0999 V2000
   25.7390    1.8092  -12.7213 C   0  0  0  0  0  0  0  0  0  0  0  0
   24.8364    1.4623  -11.7156 O   0  0  0  0  0  0  0  0  0  0  0  0
   25.2959    0.8049  -10.5769 C   0  0  0  0  0  0  0  0  0  0  0  0
   26.6207    0.8102  -10.2650 C   0  0  0  0  0  0  0  0  0  0  0  0
   27.0706    0.1597   -9.1393 C   0  0  0  0  0  0  0  0  0  0  0  0
   28.5364    0.1736   -8.8064 C   0  0  0  0  0  0  0  0  0  0  0  0
   28.9175   -1.1567   -8.5554 O   0  0  0  0  0  0  0  0  0  0  0  0
   26.1992   -0.4995   -8.3199 C   0  0  0  0  0  0  0  0  0  0  0  0
   24.8504   -0.5119   -8.6269 C   0  0  0  0  0  0  0  0  0  0  0  0
   24.4069    0.1316   -9.7390 C   0  0  0  0  0  0  0  0  0  0  0  0
   23.0793    0.1790  -10.1294 O   0  0  0  0  0  0  0  0  0  0  0  0
   22.5481   -0.8213  -10.9105 C   0  0  0  0  0  0  0  0  0  0  0  0
   23.3493   -1.3756  -11.9121 C   0  0  0  0  0  0  0  0  0  0  0  0
   22.8461   -2.3645  -12.6979 C   0  0  0  0  0  0  0  0  0  0  0  0
   23.6415   -2.9645  -13.7449 C   0  0  0  0  0  0  0  0  0  0  0  0
   24.2648   -3.4445  -14.5987 N   0  0  0  0  0  0  0  0  0  0  0  0
   21.5647   -2.8539  -12.5522 C   0  0  0  0  0  0  0  0  0  0  0  0
   20.7954   -2.2903  -11.5580 C   0  0  0  0  0  0  0  0  0  0  0  0
   21.2694   -1.2794  -10.7343 C   0  0  0  0  0  0  0  0  0  0  0  0
   20.4316   -0.7045   -9.7242 N   0  0  0  0  0  0  0  0  0  0  0  0
  1  2  1  1
  2  3  1  0
  3  4  2  0
  4  5  1  0
  5  6  1  0
  6  7  1  1
  5  8  2  0
  8  9  1  0
  9 10  2  0
 10 11  1  0
 11 12  1  0
 12 13  2  0
 13 14  1  0
 14 15  1  0
 15 16  3  0
 14 17  2  0
 17 18  1  0
 18 19  2  0
 19 20  1  0
 10  3  1  0
 19 12  1  0
M  END
$$$$
