_rank9
     RDKit          3D

 20 21  0  0  0  0  0  0  0  0999 V2000
   19.6877    2.1909   -9.8145 C   0  0  0  0  0  0  0  0  0  0  0  0
   20.9300    1.7186  -10.2389 O   0  0  0  0  0  0  0  0  0  0  0  0
   21.0925    0.3626  -10.5124 C   0  0  0  0  0  0  0  0  0  0  0  0
   20.0233   -0.4790  -10.4868 C   0  0  0  0  0  0  0  0  0  0  0  0
   20.1879   -1.8178  -10.7575 C   0  0  0  0  0  0  0  0  0  0  0  0
   18.9983   -2.7363  -10.7262 C   0  0  0  0  0  0  0  0  0  0  0  0
   18.2754   -2.4388   -9.5571 O   0  0  0  0  0  0  0  0  0  0  0  0
   21.4218   -2.3223  -11.0549 C   0  0  0  0  0  0  0  0  0  0  0  0
   22.5160   -1.4765  -11.0836 C   0  0  0  0  0  0  0  0  0  0  0  0
   22.3521   -0.1539  -10.8165 C   0  0  0  0  0  0  0  0  0  0  0  0
   23.3820    0.7715  -10.8228 O   0  0  0  0  0  0  0  0  0  0  0  0
   24.6926    0.3531  -10.8435 C   0  0  0  0  0  0  0  0  0  0  0  0
   25.3056    0.0355   -9.6287 C   0  0  0  0  0  0  0  0  0  0  0  0
   26.6006   -0.3790   -9.6234 C   0  0  0  0  0  0  0  0  0  0  0  0
   27.2717   -0.7172   -8.3888 C   0  0  0  0  0  0  0  0  0  0  0  0
   27.8254   -0.9755   -7.4016 N   0  0  0  0  0  0  0  0  0  0  0  0
   27.3490   -0.5028  -10.7754 C   0  0  0  0  0  0  0  0  0  0  0  0
   26.7214   -0.1831  -11.9595 C   0  0  0  0  0  0  0  0  0  0  0  0
   25.4023    0.2439  -12.0098 C   0  0  0  0  0  0  0  0  0  0  0  0
   24.7907    0.5865  -13.2594 N   0  0  0  0  0  0  0  0  0  0  0  0
  1  2  1  1
  2  3  1  0
  3  4  2  0
  4  5  1  0
  5  6  1  0
  6  7  1  1
  5  8  2  0
  8  9  1  0
  9 10  2  0
 10 11  1  0
 11 12  1  0
 12 13  2  0
 13 14  1  0
 14 15  1  0
 15 16  3  0
 14 17  2  0
 17 18  1  0
 18 19  2  0
 19 20  1  0
 10  3  1  0
 19 12  1  0
M  END
$$$$
