_rank3
     RDKit          3D

 20 21  0  0  0  0  0  0  0  0999 V2000
   26.5046    0.3424  -12.9184 C   0  0  0  0  0  0  0  0  0  0  0  0
   25.2815    0.3504  -12.2472 O   0  0  0  0  0  0  0  0  0  0  0  0
   25.2362    0.0091  -10.8977 C   0  0  0  0  0  0  0  0  0  0  0  0
   26.3104    0.2347  -10.0929 C   0  0  0  0  0  0  0  0  0  0  0  0
   26.2618   -0.1038   -8.7603 C   0  0  0  0  0  0  0  0  0  0  0  0
   27.4552    0.1511   -7.8826 C   0  0  0  0  0  0  0  0  0  0  0  0
   28.6015   -0.0879   -8.6616 O   0  0  0  0  0  0  0  0  0  0  0  0
   25.1397   -0.6695   -8.2253 C   0  0  0  0  0  0  0  0  0  0  0  0
   24.0418   -0.9037   -9.0335 C   0  0  0  0  0  0  0  0  0  0  0  0
   24.0907   -0.5684  -10.3499 C   0  0  0  0  0  0  0  0  0  0  0  0
   23.0458   -0.7599  -11.2378 O   0  0  0  0  0  0  0  0  0  0  0  0
   21.7502   -0.8357  -10.7810 C   0  0  0  0  0  0  0  0  0  0  0  0
   21.1352    0.3373  -10.3357 C   0  0  0  0  0  0  0  0  0  0  0  0
   19.8558    0.2874   -9.8783 C   0  0  0  0  0  0  0  0  0  0  0  0
   19.1833    1.4775   -9.4088 C   0  0  0  0  0  0  0  0  0  0  0  0
   18.6254    2.4254   -9.0371 N   0  0  0  0  0  0  0  0  0  0  0  0
   19.1251   -0.8816   -9.8320 C   0  0  0  0  0  0  0  0  0  0  0  0
   19.7545   -2.0238  -10.2763 C   0  0  0  0  0  0  0  0  0  0  0  0
   21.0583   -2.0174  -10.7504 C   0  0  0  0  0  0  0  0  0  0  0  0
   21.6854   -3.2302  -11.1851 N   0  0  0  0  0  0  0  0  0  0  0  0
  1  2  1  1
  2  3  1  0
  3  4  2  0
  4  5  1  0
  5  6  1  0
  6  7  1  1
  5  8  2  0
  8  9  1  0
  9 10  2  0
 10 11  1  0
 11 12  1  0
 12 13  2  0
 13 14  1  0
 14 15  1  0
 15 16  3  0
 14 17  2  0
 17 18  1  0
 18 19  2  0
 19 20  1  0
 10  3  1  0
 19 12  1  0
M  END
$$$$
