_rank5
     RDKit          3D

 20 21  0  0  0  0  0  0  0  0999 V2000
   26.7394    0.2156  -13.0551 C   0  0  0  0  0  0  0  0  0  0  0  0
   25.6571    0.5615  -12.2455 O   0  0  0  0  0  0  0  0  0  0  0  0
   25.5795    0.0566  -10.9498 C   0  0  0  0  0  0  0  0  0  0  0  0
   26.6868    0.0116  -10.1597 C   0  0  0  0  0  0  0  0  0  0  0  0
   26.6059   -0.4879   -8.8803 C   0  0  0  0  0  0  0  0  0  0  0  0
   27.8366   -0.5315   -8.0182 C   0  0  0  0  0  0  0  0  0  0  0  0
   28.4461    0.7333   -8.1011 O   0  0  0  0  0  0  0  0  0  0  0  0
   25.4184   -0.9452   -8.3842 C   0  0  0  0  0  0  0  0  0  0  0  0
   24.2864   -0.9047   -9.1781 C   0  0  0  0  0  0  0  0  0  0  0  0
   24.3672   -0.4106  -10.4417 C   0  0  0  0  0  0  0  0  0  0  0  0
   23.2928   -0.3257  -11.3109 O   0  0  0  0  0  0  0  0  0  0  0  0
   22.0208   -0.6166  -10.8747 C   0  0  0  0  0  0  0  0  0  0  0  0
   21.3218    0.3659  -10.1687 C   0  0  0  0  0  0  0  0  0  0  0  0
   20.0638    0.1014   -9.7261 C   0  0  0  0  0  0  0  0  0  0  0  0
   19.3067    1.0900   -8.9922 C   0  0  0  0  0  0  0  0  0  0  0  0
   18.7125    1.8836   -8.3880 N   0  0  0  0  0  0  0  0  0  0  0  0
   19.4351   -1.1070   -9.9433 C   0  0  0  0  0  0  0  0  0  0  0  0
   20.1459   -2.0586  -10.6414 C   0  0  0  0  0  0  0  0  0  0  0  0
   21.4315   -1.8304  -11.1104 C   0  0  0  0  0  0  0  0  0  0  0  0
   22.1461   -2.8528  -11.8152 N   0  0  0  0  0  0  0  0  0  0  0  0
  1  2  1  1
  2  3  1  0
  3  4  2  0
  4  5  1  0
  5  6  1  0
  6  7  1  1
  5  8  2  0
  8  9  1  0
  9 10  2  0
 10 11  1  0
 11 12  1  0
 12 13  2  0
 13 14  1  0
 14 15  1  0
 15 16  3  0
 14 17  2  0
 17 18  1  0
 18 19  2  0
 19 20  1  0
 10  3  1  0
 19 12  1  0
M  END
$$$$
