_rank18
     RDKit          3D

 20 21  0  0  0  0  0  0  0  0999 V2000
   20.7164   -2.1826  -12.8212 C   0  0  0  0  0  0  0  0  0  0  0  0
   21.8179   -1.6181  -12.1774 O   0  0  0  0  0  0  0  0  0  0  0  0
   21.6191   -0.6395  -11.2065 C   0  0  0  0  0  0  0  0  0  0  0  0
   20.3600   -0.3042  -10.8131 C   0  0  0  0  0  0  0  0  0  0  0  0
   20.1678    0.6629   -9.8537 C   0  0  0  0  0  0  0  0  0  0  0  0
   18.7718    1.0234   -9.4281 C   0  0  0  0  0  0  0  0  0  0  0  0
   17.9778    1.0484  -10.5887 O   0  0  0  0  0  0  0  0  0  0  0  0
   21.2325    1.3000   -9.2828 C   0  0  0  0  0  0  0  0  0  0  0  0
   22.5168    0.9677   -9.6749 C   0  0  0  0  0  0  0  0  0  0  0  0
   22.7056    0.0117  -10.6224 C   0  0  0  0  0  0  0  0  0  0  0  0
   23.9488   -0.3922  -11.0789 O   0  0  0  0  0  0  0  0  0  0  0  0
   25.0250   -0.4309  -10.2226 C   0  0  0  0  0  0  0  0  0  0  0  0
   26.1373    0.3605  -10.5206 C   0  0  0  0  0  0  0  0  0  0  0  0
   27.2136    0.3381   -9.6902 C   0  0  0  0  0  0  0  0  0  0  0  0
   28.3840    1.1415   -9.9621 C   0  0  0  0  0  0  0  0  0  0  0  0
   29.3195    1.7985  -10.1646 N   0  0  0  0  0  0  0  0  0  0  0  0
   27.2614   -0.4391   -8.5516 C   0  0  0  0  0  0  0  0  0  0  0  0
   26.1524   -1.2103   -8.2807 C   0  0  0  0  0  0  0  0  0  0  0  0
   25.0337   -1.2175   -9.1013 C   0  0  0  0  0  0  0  0  0  0  0  0
   23.9072   -2.0488   -8.7965 N   0  0  0  0  0  0  0  0  0  0  0  0
  1  2  1  1
  2  3  1  0
  3  4  2  0
  4  5  1  0
  5  6  1  0
  6  7  1  1
  5  8  2  0
  8  9  1  0
  9 10  2  0
 10 11  1  0
 11 12  1  0
 12 13  2  0
 13 14  1  0
 14 15  1  0
 15 16  3  0
 14 17  2  0
 17 18  1  0
 18 19  2  0
 19 20  1  0
 10  3  1  0
 19 12  1  0
M  END
$$$$
