_rank18
     RDKit          3D

 37 40  0  0  0  0  0  0  0  0999 V2000
  -12.0737   -6.7323   10.6791 C   0  0  0  0  0  0  0  0  0  0  0  0
  -11.3416   -6.5126   11.9213 N   0  0  0  0  0  0  0  0  0  0  0  0
  -10.0496   -7.0352   12.0980 N   0  0  0  0  0  0  0  0  0  0  0  0
   -9.0047   -6.3229   12.4111 C   0  0  0  0  0  0  0  0  0  0  0  0
   -9.0787   -4.8968   12.5402 N   0  0  0  0  0  0  0  0  0  0  0  0
  -10.5100   -3.8990   11.7945 Br  0  0  0  0  0  0  0  0  0  0  0  0
   -7.7433   -6.9731   12.6244 N   0  0  0  0  0  0  0  0  0  0  0  0
   -7.5889   -8.3719   12.5246 N   0  0  0  0  0  0  0  0  0  0  0  0
   -8.2104   -9.2042   13.4051 C   0  0  0  0  0  0  0  0  0  0  0  0
   -8.9295   -8.7424   14.3311 O   0  0  0  0  0  0  0  0  0  0  0  0
   -8.0501  -10.5399   13.2971 N   0  0  0  0  0  0  0  0  0  0  0  0
   -7.2457  -11.0776   12.3477 C   0  0  0  0  0  0  0  0  0  0  0  0
   -7.1827  -12.5098   12.2349 N   0  0  0  0  0  0  0  0  0  0  0  0
   -8.3319  -13.3577   12.4089 C   0  0  0  0  0  0  0  0  0  0  0  0
   -9.6055  -12.9554   11.9380 C   0  0  0  0  0  0  0  0  0  0  0  0
  -10.6812  -13.8064   12.1652 C   0  0  0  0  0  0  0  0  0  0  0  0
  -12.0138  -13.7116   11.8432 C   0  0  0  0  0  0  0  0  0  0  0  0
  -12.6149  -14.8295   12.3142 N   0  0  0  0  0  0  0  0  0  0  0  0
  -14.0171  -15.1744   12.1357 C   0  0  0  0  0  0  0  0  0  0  0  0
  -11.7294  -15.6293   12.8991 N   0  0  0  0  0  0  0  0  0  0  0  0
  -10.5426  -15.0000   12.8158 C   0  0  0  0  0  0  0  0  0  0  0  0
   -9.3133  -15.4301   13.3004 C   0  0  0  0  0  0  0  0  0  0  0  0
   -8.1985  -14.5930   13.1016 C   0  0  0  0  0  0  0  0  0  0  0  0
   -6.9861  -14.9900   13.5648 F   0  0  0  0  0  0  0  0  0  0  0  0
   -6.5594  -10.2528   11.4884 N   0  0  0  0  0  0  0  0  0  0  0  0
   -5.5638  -10.7791   10.5271 C   0  0  0  0  0  0  0  0  0  0  0  0
   -4.1607  -10.5902   11.0528 C   0  0  0  0  0  0  0  0  0  0  0  0
   -3.9531  -10.1941   12.3859 C   0  0  0  0  0  0  0  0  0  0  0  0
   -2.6563  -10.0476   12.8882 C   0  0  0  0  0  0  0  0  0  0  0  0
   -2.4684   -9.6703   14.1775 F   0  0  0  0  0  0  0  0  0  0  0  0
   -1.5551  -10.2927   12.0638 C   0  0  0  0  0  0  0  0  0  0  0  0
   -0.2963  -10.1560   12.5496 F   0  0  0  0  0  0  0  0  0  0  0  0
   -1.7503  -10.6795   10.7360 C   0  0  0  0  0  0  0  0  0  0  0  0
   -3.0451  -10.8276   10.2284 C   0  0  0  0  0  0  0  0  0  0  0  0
   -3.2061  -11.1853    8.9310 F   0  0  0  0  0  0  0  0  0  0  0  0
   -6.7541   -8.8951   11.5794 C   0  0  0  0  0  0  0  0  0  0  0  0
   -6.1648   -8.1155   10.7792 O   0  0  0  0  0  0  0  0  0  0  0  0
  1  2  1  6
  2  3  1  0
  3  4  2  3
  4  5  1  0
  5  6  1  0
  4  7  1  0
  7  8  1  0
  8  9  1  0
  9 10  2  0
  9 11  1  0
 11 12  2  0
 12 13  1  0
 13 14  1  0
 14 15  2  0
 15 16  1  0
 16 17  2  0
 17 18  1  0
 19 18  1  1
 18 20  1  0
 20 21  2  0
 21 22  1  0
 22 23  2  0
 23 24  1  0
 12 25  1  0
 26 25  1  6
 26 27  1  0
 27 28  2  0
 28 29  1  0
 29 30  1  0
 29 31  2  0
 31 32  1  0
 31 33  1  0
 33 34  2  0
 34 35  1  0
 25 36  1  0
 36 37  2  0
 36  8  1  0
 23 14  1  0
 34 27  1  0
 21 16  1  0
M  END
$$$$
