_rank15
     RDKit          3D

 37 40  0  0  0  0  0  0  0  0999 V2000
   -2.1707  -10.7699    9.4204 C   0  0  0  0  0  0  0  0  0  0  0  0
   -2.8047   -9.7130   10.2003 N   0  0  0  0  0  0  0  0  0  0  0  0
   -2.7501   -9.7220   11.6040 N   0  0  0  0  0  0  0  0  0  0  0  0
   -3.5486   -9.0404   12.3754 C   0  0  0  0  0  0  0  0  0  0  0  0
   -3.1493   -8.6207   13.6870 N   0  0  0  0  0  0  0  0  0  0  0  0
   -1.3217   -8.4665   14.1734 Br  0  0  0  0  0  0  0  0  0  0  0  0
   -4.8648   -8.7057   11.9119 N   0  0  0  0  0  0  0  0  0  0  0  0
   -5.8018   -9.6878   11.5268 N   0  0  0  0  0  0  0  0  0  0  0  0
   -5.5035  -11.0122   11.6328 C   0  0  0  0  0  0  0  0  0  0  0  0
   -4.3827  -11.3877   12.0695 O   0  0  0  0  0  0  0  0  0  0  0  0
   -6.4102  -11.9388   11.2576 N   0  0  0  0  0  0  0  0  0  0  0  0
   -7.6085  -11.5797   10.7355 C   0  0  0  0  0  0  0  0  0  0  0  0
   -8.5605  -12.6140   10.4322 N   0  0  0  0  0  0  0  0  0  0  0  0
   -9.9679  -12.3583   10.2779 C   0  0  0  0  0  0  0  0  0  0  0  0
  -10.5282  -12.1470    8.9945 C   0  0  0  0  0  0  0  0  0  0  0  0
  -11.8891  -11.8739    8.9163 C   0  0  0  0  0  0  0  0  0  0  0  0
  -12.7184  -11.6272    7.8487 C   0  0  0  0  0  0  0  0  0  0  0  0
  -13.9581  -11.4178    8.3511 N   0  0  0  0  0  0  0  0  0  0  0  0
  -15.1604  -11.1853    7.5654 C   0  0  0  0  0  0  0  0  0  0  0  0
  -13.9559  -11.5366    9.6746 N   0  0  0  0  0  0  0  0  0  0  0  0
  -12.6853  -11.8091   10.0249 C   0  0  0  0  0  0  0  0  0  0  0  0
  -12.1759  -12.0029   11.3032 C   0  0  0  0  0  0  0  0  0  0  0  0
  -10.7992  -12.2711   11.4290 C   0  0  0  0  0  0  0  0  0  0  0  0
  -10.2765  -12.4648   12.6665 F   0  0  0  0  0  0  0  0  0  0  0  0
   -7.9052  -10.2488   10.5612 N   0  0  0  0  0  0  0  0  0  0  0  0
   -9.1372   -9.8061    9.8696 C   0  0  0  0  0  0  0  0  0  0  0  0
  -10.1536   -9.2943   10.8625 C   0  0  0  0  0  0  0  0  0  0  0  0
   -9.9427   -9.4668   12.2419 C   0  0  0  0  0  0  0  0  0  0  0  0
  -10.8643   -8.9679   13.1679 C   0  0  0  0  0  0  0  0  0  0  0  0
  -10.6474   -9.1356   14.4963 F   0  0  0  0  0  0  0  0  0  0  0  0
  -12.0057   -8.2944   12.7253 C   0  0  0  0  0  0  0  0  0  0  0  0
  -12.8987   -7.8053   13.6211 F   0  0  0  0  0  0  0  0  0  0  0  0
  -12.2283   -8.1240   11.3570 C   0  0  0  0  0  0  0  0  0  0  0  0
  -11.3099   -8.6208   10.4265 C   0  0  0  0  0  0  0  0  0  0  0  0
  -11.5600   -8.4586    9.1043 F   0  0  0  0  0  0  0  0  0  0  0  0
   -6.9931   -9.3087   10.9781 C   0  0  0  0  0  0  0  0  0  0  0  0
   -7.2543   -8.0782   10.8639 O   0  0  0  0  0  0  0  0  0  0  0  0
  1  2  1  6
  2  3  1  0
  3  4  2  3
  4  5  1  0
  5  6  1  0
  4  7  1  0
  7  8  1  0
  8  9  1  0
  9 10  2  0
  9 11  1  0
 11 12  2  0
 12 13  1  0
 13 14  1  0
 14 15  2  0
 15 16  1  0
 16 17  2  0
 17 18  1  0
 19 18  1  1
 18 20  1  0
 20 21  2  0
 21 22  1  0
 22 23  2  0
 23 24  1  0
 12 25  1  0
 26 25  1  6
 26 27  1  0
 27 28  2  0
 28 29  1  0
 29 30  1  0
 29 31  2  0
 31 32  1  0
 31 33  1  0
 33 34  2  0
 34 35  1  0
 25 36  1  0
 36 37  2  0
 36  8  1  0
 23 14  1  0
 34 27  1  0
 21 16  1  0
M  END
$$$$
