_rank16
     RDKit          3D

 37 40  0  0  0  0  0  0  0  0999 V2000
   -2.7934  -11.4689   16.6082 C   0  0  0  0  0  0  0  0  0  0  0  0
   -2.7809  -10.0185   16.4551 N   0  0  0  0  0  0  0  0  0  0  0  0
   -3.7719   -9.3650   15.7037 N   0  0  0  0  0  0  0  0  0  0  0  0
   -3.6647   -8.1510   15.2433 C   0  0  0  0  0  0  0  0  0  0  0  0
   -2.6530   -7.2534   15.7195 N   0  0  0  0  0  0  0  0  0  0  0  0
   -2.4071   -5.5320   14.9603 Br  0  0  0  0  0  0  0  0  0  0  0  0
   -4.5835   -7.6904   14.2419 N   0  0  0  0  0  0  0  0  0  0  0  0
   -5.4645   -8.5623   13.5678 N   0  0  0  0  0  0  0  0  0  0  0  0
   -5.0357   -9.2992   12.5061 C   0  0  0  0  0  0  0  0  0  0  0  0
   -3.8463   -9.2122   12.0991 O   0  0  0  0  0  0  0  0  0  0  0  0
   -5.8921  -10.1266   11.8708 N   0  0  0  0  0  0  0  0  0  0  0  0
   -7.1927  -10.2138   12.2428 C   0  0  0  0  0  0  0  0  0  0  0  0
   -8.0318  -11.1740   11.5780 N   0  0  0  0  0  0  0  0  0  0  0  0
   -7.5145  -12.1778   10.6867 C   0  0  0  0  0  0  0  0  0  0  0  0
   -6.4802  -13.0510   11.1030 C   0  0  0  0  0  0  0  0  0  0  0  0
   -6.0030  -13.9784   10.1837 C   0  0  0  0  0  0  0  0  0  0  0  0
   -5.0295  -14.9443   10.2716 C   0  0  0  0  0  0  0  0  0  0  0  0
   -4.9742  -15.5607    9.0674 N   0  0  0  0  0  0  0  0  0  0  0  0
   -4.1236  -16.6937    8.7361 C   0  0  0  0  0  0  0  0  0  0  0  0
   -5.8719  -15.0462    8.2336 N   0  0  0  0  0  0  0  0  0  0  0  0
   -6.4997  -14.0693    8.9141 C   0  0  0  0  0  0  0  0  0  0  0  0
   -7.5092  -13.2281    8.4619 C   0  0  0  0  0  0  0  0  0  0  0  0
   -8.0140  -12.2659    9.3577 C   0  0  0  0  0  0  0  0  0  0  0  0
   -9.0007  -11.4322    8.9411 F   0  0  0  0  0  0  0  0  0  0  0  0
   -7.6616   -9.4320   13.2717 N   0  0  0  0  0  0  0  0  0  0  0  0
   -9.0984   -9.3851   13.6263 C   0  0  0  0  0  0  0  0  0  0  0  0
   -9.8040   -8.2937   12.8571 C   0  0  0  0  0  0  0  0  0  0  0  0
   -9.1249   -7.1061   12.5322 C   0  0  0  0  0  0  0  0  0  0  0  0
   -9.7622   -6.1045   11.7931 C   0  0  0  0  0  0  0  0  0  0  0  0
   -9.0952   -4.9654   11.4810 F   0  0  0  0  0  0  0  0  0  0  0  0
  -11.0837   -6.2781   11.3739 C   0  0  0  0  0  0  0  0  0  0  0  0
  -11.7028   -5.3104   10.6531 F   0  0  0  0  0  0  0  0  0  0  0  0
  -11.7697   -7.4509   11.6977 C   0  0  0  0  0  0  0  0  0  0  0  0
  -11.1372   -8.4560   12.4365 C   0  0  0  0  0  0  0  0  0  0  0  0
  -11.8321   -9.5757   12.7534 F   0  0  0  0  0  0  0  0  0  0  0  0
   -6.7774   -8.6178   13.9386 C   0  0  0  0  0  0  0  0  0  0  0  0
   -7.1725   -7.9158   14.9114 O   0  0  0  0  0  0  0  0  0  0  0  0
  1  2  1  6
  2  3  1  0
  3  4  2  3
  4  5  1  0
  5  6  1  0
  4  7  1  0
  7  8  1  0
  8  9  1  0
  9 10  2  0
  9 11  1  0
 11 12  2  0
 12 13  1  0
 13 14  1  0
 14 15  2  0
 15 16  1  0
 16 17  2  0
 17 18  1  0
 19 18  1  1
 18 20  1  0
 20 21  2  0
 21 22  1  0
 22 23  2  0
 23 24  1  0
 12 25  1  0
 26 25  1  6
 26 27  1  0
 27 28  2  0
 28 29  1  0
 29 30  1  0
 29 31  2  0
 31 32  1  0
 31 33  1  0
 33 34  2  0
 34 35  1  0
 25 36  1  0
 36 37  2  0
 36  8  1  0
 23 14  1  0
 34 27  1  0
 21 16  1  0
M  END
$$$$
