_rank13
     RDKit          3D

 37 40  0  0  0  0  0  0  0  0999 V2000
   -3.3970  -11.8393    8.6846 C   0  0  0  0  0  0  0  0  0  0  0  0
   -3.8940  -10.8810    9.6653 N   0  0  0  0  0  0  0  0  0  0  0  0
   -3.0403  -10.3418   10.6422 N   0  0  0  0  0  0  0  0  0  0  0  0
   -3.3591   -9.3592   11.4359 C   0  0  0  0  0  0  0  0  0  0  0  0
   -2.4308   -8.8374   12.3960 N   0  0  0  0  0  0  0  0  0  0  0  0
   -2.9030   -7.4328   13.5811 Br  0  0  0  0  0  0  0  0  0  0  0  0
   -4.6725   -8.7860   11.3599 N   0  0  0  0  0  0  0  0  0  0  0  0
   -5.8426   -9.5544   11.5359 N   0  0  0  0  0  0  0  0  0  0  0  0
   -6.0573  -10.6740   10.7912 C   0  0  0  0  0  0  0  0  0  0  0  0
   -5.2197  -11.0425    9.9248 O   0  0  0  0  0  0  0  0  0  0  0  0
   -7.1831  -11.3963   10.9703 N   0  0  0  0  0  0  0  0  0  0  0  0
   -8.1343  -11.0091   11.8551 C   0  0  0  0  0  0  0  0  0  0  0  0
   -9.2712  -11.8663   12.0567 N   0  0  0  0  0  0  0  0  0  0  0  0
   -9.8381  -12.6705   11.0072 C   0  0  0  0  0  0  0  0  0  0  0  0
   -9.0310  -13.1487    9.9462 C   0  0  0  0  0  0  0  0  0  0  0  0
   -9.6459  -13.8944    8.9468 C   0  0  0  0  0  0  0  0  0  0  0  0
   -9.1562  -14.4886    7.8086 C   0  0  0  0  0  0  0  0  0  0  0  0
  -10.2036  -15.0850    7.1920 N   0  0  0  0  0  0  0  0  0  0  0  0
  -10.1261  -15.8882    5.9813 C   0  0  0  0  0  0  0  0  0  0  0  0
  -11.3212  -14.9125    7.8899 N   0  0  0  0  0  0  0  0  0  0  0  0
  -10.9830  -14.1753    8.9640 C   0  0  0  0  0  0  0  0  0  0  0  0
  -11.8127  -13.7202    9.9816 C   0  0  0  0  0  0  0  0  0  0  0  0
  -11.2327  -12.9512   11.0088 C   0  0  0  0  0  0  0  0  0  0  0  0
  -12.0210  -12.4948   12.0150 F   0  0  0  0  0  0  0  0  0  0  0  0
   -7.9667   -9.8481   12.5719 N   0  0  0  0  0  0  0  0  0  0  0  0
   -9.0328   -9.3076   13.4458 C   0  0  0  0  0  0  0  0  0  0  0  0
   -9.7905   -8.2048   12.7456 C   0  0  0  0  0  0  0  0  0  0  0  0
   -9.7969   -8.1332   11.3414 C   0  0  0  0  0  0  0  0  0  0  0  0
  -10.5220   -7.1332   10.6857 C   0  0  0  0  0  0  0  0  0  0  0  0
  -10.5251   -7.0776    9.3305 F   0  0  0  0  0  0  0  0  0  0  0  0
  -11.2452   -6.1942   11.4258 C   0  0  0  0  0  0  0  0  0  0  0  0
  -11.9531   -5.2262   10.7925 F   0  0  0  0  0  0  0  0  0  0  0  0
  -11.2396   -6.2520   12.8213 C   0  0  0  0  0  0  0  0  0  0  0  0
  -10.5162   -7.2500   13.4823 C   0  0  0  0  0  0  0  0  0  0  0  0
  -10.5122   -7.2715   14.8375 F   0  0  0  0  0  0  0  0  0  0  0  0
   -6.8022   -9.1354   12.4120 C   0  0  0  0  0  0  0  0  0  0  0  0
   -6.6052   -8.0845   13.0845 O   0  0  0  0  0  0  0  0  0  0  0  0
  1  2  1  6
  2  3  1  0
  3  4  2  3
  4  5  1  0
  5  6  1  0
  4  7  1  0
  7  8  1  0
  8  9  1  0
  9 10  2  0
  9 11  1  0
 11 12  2  0
 12 13  1  0
 13 14  1  0
 14 15  2  0
 15 16  1  0
 16 17  2  0
 17 18  1  0
 19 18  1  1
 18 20  1  0
 20 21  2  0
 21 22  1  0
 22 23  2  0
 23 24  1  0
 12 25  1  0
 26 25  1  6
 26 27  1  0
 27 28  2  0
 28 29  1  0
 29 30  1  0
 29 31  2  0
 31 32  1  0
 31 33  1  0
 33 34  2  0
 34 35  1  0
 25 36  1  0
 36 37  2  0
 36  8  1  0
 23 14  1  0
 34 27  1  0
 21 16  1  0
M  END
$$$$
