_rank7
     RDKit          3D

 37 40  0  0  0  0  0  0  0  0999 V2000
   -3.5907  -12.6797   10.8186 C   0  0  0  0  0  0  0  0  0  0  0  0
   -3.2749  -11.2561   10.8488 N   0  0  0  0  0  0  0  0  0  0  0  0
   -3.3722  -10.5219   12.0426 N   0  0  0  0  0  0  0  0  0  0  0  0
   -3.4198   -9.2215   12.1043 C   0  0  0  0  0  0  0  0  0  0  0  0
   -2.2794   -8.4456   12.4960 N   0  0  0  0  0  0  0  0  0  0  0  0
   -1.3033   -8.8321   14.0766 Br  0  0  0  0  0  0  0  0  0  0  0  0
   -4.6423   -8.5422   11.7828 N   0  0  0  0  0  0  0  0  0  0  0  0
   -5.8772   -9.2173   11.6838 N   0  0  0  0  0  0  0  0  0  0  0  0
   -6.2118   -9.8911   10.5488 C   0  0  0  0  0  0  0  0  0  0  0  0
   -5.4294   -9.9193    9.5614 O   0  0  0  0  0  0  0  0  0  0  0  0
   -7.3982  -10.5295   10.4696 N   0  0  0  0  0  0  0  0  0  0  0  0
   -8.2915  -10.4834   11.4881 C   0  0  0  0  0  0  0  0  0  0  0  0
   -9.5014  -11.2519   11.3728 N   0  0  0  0  0  0  0  0  0  0  0  0
   -9.6720  -12.2975   10.3995 C   0  0  0  0  0  0  0  0  0  0  0  0
   -9.0070  -13.5391   10.5476 C   0  0  0  0  0  0  0  0  0  0  0  0
   -9.1892  -14.4965    9.5562 C   0  0  0  0  0  0  0  0  0  0  0  0
   -8.6973  -15.7708    9.4057 C   0  0  0  0  0  0  0  0  0  0  0  0
   -9.1978  -16.2533    8.2440 N   0  0  0  0  0  0  0  0  0  0  0  0
   -8.9864  -17.5962    7.7255 C   0  0  0  0  0  0  0  0  0  0  0  0
   -9.9911  -15.3579    7.6653 N   0  0  0  0  0  0  0  0  0  0  0  0
   -9.9815  -14.2754    8.4651 C   0  0  0  0  0  0  0  0  0  0  0  0
  -10.6464  -13.0698    8.2766 C   0  0  0  0  0  0  0  0  0  0  0  0
  -10.4805  -12.0676    9.2518 C   0  0  0  0  0  0  0  0  0  0  0  0
  -11.1194  -10.8810    9.0918 F   0  0  0  0  0  0  0  0  0  0  0  0
   -8.0003   -9.7566   12.6181 N   0  0  0  0  0  0  0  0  0  0  0  0
   -8.9935   -9.5586   13.6983 C   0  0  0  0  0  0  0  0  0  0  0  0
   -9.7149   -8.2430   13.5271 C   0  0  0  0  0  0  0  0  0  0  0  0
   -9.3682   -7.3790   12.4734 C   0  0  0  0  0  0  0  0  0  0  0  0
  -10.0532   -6.1736   12.2903 C   0  0  0  0  0  0  0  0  0  0  0  0
   -9.7134   -5.3508   11.2669 F   0  0  0  0  0  0  0  0  0  0  0  0
  -11.0886   -5.8187   13.1587 C   0  0  0  0  0  0  0  0  0  0  0  0
  -11.7578   -4.6526   12.9808 F   0  0  0  0  0  0  0  0  0  0  0  0
  -11.4361   -6.6663   14.2130 C   0  0  0  0  0  0  0  0  0  0  0  0
  -10.7545   -7.8731   14.4007 C   0  0  0  0  0  0  0  0  0  0  0  0
  -11.0990   -8.6680   15.4431 F   0  0  0  0  0  0  0  0  0  0  0  0
   -6.7761   -9.1381   12.7085 C   0  0  0  0  0  0  0  0  0  0  0  0
   -6.4669   -8.4940   13.7501 O   0  0  0  0  0  0  0  0  0  0  0  0
  1  2  1  6
  2  3  1  0
  3  4  2  3
  4  5  1  0
  5  6  1  0
  4  7  1  0
  7  8  1  0
  8  9  1  0
  9 10  2  0
  9 11  1  0
 11 12  2  0
 12 13  1  0
 13 14  1  0
 14 15  2  0
 15 16  1  0
 16 17  2  0
 17 18  1  0
 19 18  1  1
 18 20  1  0
 20 21  2  0
 21 22  1  0
 22 23  2  0
 23 24  1  0
 12 25  1  0
 26 25  1  6
 26 27  1  0
 27 28  2  0
 28 29  1  0
 29 30  1  0
 29 31  2  0
 31 32  1  0
 31 33  1  0
 33 34  2  0
 34 35  1  0
 25 36  1  0
 36 37  2  0
 36  8  1  0
 23 14  1  0
 34 27  1  0
 21 16  1  0
M  END
$$$$
