_rank10
     RDKit          3D

 26 28  0  0  0  0  0  0  0  0999 V2000
   27.4203   -1.0508   -6.9954 C   0  0  0  0  0  0  0  0  0  0  0  0
   27.7937   -0.4502   -8.6474 S   0  0  1  0  0  6  0  0  0  0  0  0
   28.3066    0.9576   -8.4529 O   0  0  0  0  0  0  0  0  0  0  0  0
   28.8048   -1.3320   -9.2796 O   0  0  0  0  0  0  0  0  0  0  0  0
   26.2802   -0.4076   -9.5127 C   0  0  0  0  0  0  0  0  0  0  0  0
   25.0706   -0.7517   -8.9428 C   0  0  0  0  0  0  0  0  0  0  0  0
   23.9069   -0.6955   -9.6810 C   0  0  0  0  0  0  0  0  0  0  0  0
   23.9081   -0.2946  -11.0122 C   0  0  0  0  0  0  0  0  0  0  0  0
   22.7274   -0.2396  -11.7544 O   0  0  0  0  0  0  0  0  0  0  0  0
   21.5482   -0.5337  -11.0897 C   0  0  0  0  0  0  0  0  0  0  0  0
   21.0867   -1.8219  -11.1289 C   0  0  0  0  0  0  0  0  0  0  0  0
   19.9124   -2.1131  -10.4665 C   0  0  0  0  0  0  0  0  0  0  0  0
   19.4572   -3.3832  -10.5050 F   0  0  0  0  0  0  0  0  0  0  0  0
   19.2308   -1.1268   -9.7872 C   0  0  0  0  0  0  0  0  0  0  0  0
   19.6910    0.1726   -9.7444 C   0  0  0  0  0  0  0  0  0  0  0  0
   18.9520    1.1908   -9.0209 C   0  0  0  0  0  0  0  0  0  0  0  0
   18.3669    2.0146   -8.4593 N   0  0  0  0  0  0  0  0  0  0  0  0
   20.8663    0.4542  -10.4099 C   0  0  0  0  0  0  0  0  0  0  0  0
   25.1263    0.0429  -11.5561 C   0  0  0  0  0  0  0  0  0  0  0  0
   26.2951   -0.0084  -10.8323 C   0  0  0  0  0  0  0  0  0  0  0  0
   27.3920    0.4075  -11.7103 C   0  0  2  0  0  0  0  0  0  0  0  0
   28.3691    1.1765  -11.0894 O   0  0  0  0  0  0  0  0  0  0  0  0
   26.7569    1.1888  -12.8317 C   0  0  2  0  0  0  0  0  0  0  0  0
   27.4082    0.9954  -14.0334 F   0  0  0  0  0  0  0  0  0  0  0  0
   26.5809    2.5093  -12.5520 F   0  0  0  0  0  0  0  0  0  0  0  0
   25.4048    0.5064  -12.9578 C   0  0  0  0  0  0  0  0  0  0  0  0
  1  2  1  1
  2  3  2  0
  2  4  2  0
  2  5  1  6
  5  6  2  0
  6  7  1  0
  7  8  2  0
  8  9  1  0
  9 10  1  0
 10 11  2  0
 11 12  1  0
 12 13  1  0
 12 14  2  0
 14 15  1  0
 15 16  1  0
 16 17  3  0
 15 18  2  0
  8 19  1  0
 19 20  2  0
 20 21  1  0
 21 22  1  1
 21 23  1  0
 23 24  1  6
 23 25  1  0
 23 26  1  0
 20  5  1  0
 18 10  1  0
 26 19  1  1
M  END
$$$$
