_rank4
     RDKit          3D

 26 28  0  0  0  0  0  0  0  0999 V2000
   27.7968    1.2962   -8.2716 C   0  0  0  0  0  0  0  0  0  0  0  0
   27.3285   -0.4361   -8.3664 S   0  0  1  0  0  6  0  0  0  0  0  0
   28.4888   -1.1259   -9.0450 O   0  0  0  0  0  0  0  0  0  0  0  0
   27.0866   -0.9607   -7.0003 O   0  0  0  0  0  0  0  0  0  0  0  0
   25.9204   -0.5129   -9.3924 C   0  0  0  0  0  0  0  0  0  0  0  0
   24.6662   -0.8641   -8.9342 C   0  0  0  0  0  0  0  0  0  0  0  0
   23.5909   -0.9050   -9.7970 C   0  0  0  0  0  0  0  0  0  0  0  0
   23.7281   -0.5973  -11.1458 C   0  0  0  0  0  0  0  0  0  0  0  0
   22.6364   -0.6402  -12.0145 O   0  0  0  0  0  0  0  0  0  0  0  0
   21.3840   -0.8122  -11.4482 C   0  0  0  0  0  0  0  0  0  0  0  0
   20.6448   -1.8996  -11.8291 C   0  0  0  0  0  0  0  0  0  0  0  0
   19.3978   -2.0693  -11.2642 C   0  0  0  0  0  0  0  0  0  0  0  0
   18.6689   -3.1414  -11.6397 F   0  0  0  0  0  0  0  0  0  0  0  0
   18.9194   -1.1632  -10.3430 C   0  0  0  0  0  0  0  0  0  0  0  0
   19.6597   -0.0659   -9.9555 C   0  0  0  0  0  0  0  0  0  0  0  0
   19.1300    0.8721   -8.9829 C   0  0  0  0  0  0  0  0  0  0  0  0
   18.7161    1.6341   -8.2185 N   0  0  0  0  0  0  0  0  0  0  0  0
   20.9056    0.0954  -10.5259 C   0  0  0  0  0  0  0  0  0  0  0  0
   24.9881   -0.2505  -11.5768 C   0  0  0  0  0  0  0  0  0  0  0  0
   26.0698   -0.2056  -10.7281 C   0  0  0  0  0  0  0  0  0  0  0  0
   27.2442    0.1915  -11.5093 C   0  0  2  0  0  0  0  0  0  0  0  0
   28.1213    1.0394  -10.8433 O   0  0  0  0  0  0  0  0  0  0  0  0
   26.7140    0.8678  -12.7472 C   0  0  2  0  0  0  0  0  0  0  0  0
   27.5011    0.6176  -13.8534 F   0  0  0  0  0  0  0  0  0  0  0  0
   26.4664    2.1966  -12.5856 F   0  0  0  0  0  0  0  0  0  0  0  0
   25.4065    0.1257  -12.9699 C   0  0  0  0  0  0  0  0  0  0  0  0
  1  2  1  1
  2  3  2  0
  2  4  2  0
  2  5  1  6
  5  6  2  0
  6  7  1  0
  7  8  2  0
  8  9  1  0
  9 10  1  0
 10 11  2  0
 11 12  1  0
 12 13  1  0
 12 14  2  0
 14 15  1  0
 15 16  1  0
 16 17  3  0
 15 18  2  0
  8 19  1  0
 19 20  2  0
 20 21  1  0
 21 22  1  1
 21 23  1  0
 23 24  1  6
 23 25  1  0
 23 26  1  0
 20  5  1  0
 18 10  1  0
 26 19  1  1
M  END
$$$$
