_rank3
     RDKit          3D

 26 28  0  0  0  0  0  0  0  0999 V2000
   28.2639    0.8373   -8.3654 C   0  0  0  0  0  0  0  0  0  0  0  0
   27.5144   -0.7957   -8.3459 S   0  0  1  0  0  6  0  0  0  0  0  0
   28.4886   -1.6899   -9.0767 O   0  0  0  0  0  0  0  0  0  0  0  0
   27.3017   -1.2280   -6.9432 O   0  0  0  0  0  0  0  0  0  0  0  0
   26.0343   -0.6722   -9.2599 C   0  0  0  0  0  0  0  0  0  0  0  0
   24.7809   -0.7977   -8.6946 C   0  0  0  0  0  0  0  0  0  0  0  0
   23.6471   -0.6882   -9.4723 C   0  0  0  0  0  0  0  0  0  0  0  0
   23.7229   -0.4498  -10.8399 C   0  0  0  0  0  0  0  0  0  0  0  0
   22.5723   -0.3399  -11.6221 O   0  0  0  0  0  0  0  0  0  0  0  0
   21.3764   -0.7381  -11.0474 C   0  0  0  0  0  0  0  0  0  0  0  0
   20.9680   -2.0315  -11.2325 C   0  0  0  0  0  0  0  0  0  0  0  0
   19.7769   -2.4264  -10.6596 C   0  0  0  0  0  0  0  0  0  0  0  0
   19.3741   -3.7015  -10.8420 F   0  0  0  0  0  0  0  0  0  0  0  0
   19.0270   -1.5352   -9.9232 C   0  0  0  0  0  0  0  0  0  0  0  0
   19.4336   -0.2310   -9.7334 C   0  0  0  0  0  0  0  0  0  0  0  0
   18.6231    0.6855   -8.9528 C   0  0  0  0  0  0  0  0  0  0  0  0
   17.9640    1.4157   -8.3455 N   0  0  0  0  0  0  0  0  0  0  0  0
   20.6261    0.1546  -10.3103 C   0  0  0  0  0  0  0  0  0  0  0  0
   24.9836   -0.3288  -11.3784 C   0  0  0  0  0  0  0  0  0  0  0  0
   26.1232   -0.4357  -10.6153 C   0  0  0  0  0  0  0  0  0  0  0  0
   27.2794   -0.2620  -11.4985 C   0  0  2  0  0  0  0  0  0  0  0  0
   28.3327    0.4507  -10.9378 O   0  0  0  0  0  0  0  0  0  0  0  0
   26.7673    0.4531  -12.7222 C   0  0  2  0  0  0  0  0  0  0  0  0
   27.4118    0.0421  -13.8718 F   0  0  0  0  0  0  0  0  0  0  0  0
   26.7515    1.8089  -12.6015 F   0  0  0  0  0  0  0  0  0  0  0  0
   25.3434   -0.0705  -12.8140 C   0  0  0  0  0  0  0  0  0  0  0  0
  1  2  1  1
  2  3  2  0
  2  4  2  0
  2  5  1  6
  5  6  2  0
  6  7  1  0
  7  8  2  0
  8  9  1  0
  9 10  1  0
 10 11  2  0
 11 12  1  0
 12 13  1  0
 12 14  2  0
 14 15  1  0
 15 16  1  0
 16 17  3  0
 15 18  2  0
  8 19  1  0
 19 20  2  0
 20 21  1  0
 21 22  1  1
 21 23  1  0
 23 24  1  6
 23 25  1  0
 23 26  1  0
 20  5  1  0
 18 10  1  0
 26 19  1  1
M  END
$$$$
