_rank1
     RDKit          3D

 26 28  0  0  0  0  0  0  0  0999 V2000
   28.1181    1.1641   -8.6243 C   0  0  0  0  0  0  0  0  0  0  0  0
   27.5146   -0.5269   -8.5507 S   0  0  1  0  0  6  0  0  0  0  0  0
   28.5588   -1.3539   -9.2639 O   0  0  0  0  0  0  0  0  0  0  0  0
   27.3496   -0.9342   -7.1342 O   0  0  0  0  0  0  0  0  0  0  0  0
   26.0236   -0.5604   -9.4546 C   0  0  0  0  0  0  0  0  0  0  0  0
   24.7979   -0.8440   -8.8860 C   0  0  0  0  0  0  0  0  0  0  0  0
   23.6535   -0.8534   -9.6557 C   0  0  0  0  0  0  0  0  0  0  0  0
   23.6907   -0.5805  -11.0183 C   0  0  0  0  0  0  0  0  0  0  0  0
   22.5294   -0.5913  -11.7925 O   0  0  0  0  0  0  0  0  0  0  0  0
   21.3344   -0.8375  -11.1366 C   0  0  0  0  0  0  0  0  0  0  0  0
   20.8530   -2.1190  -11.1271 C   0  0  0  0  0  0  0  0  0  0  0  0
   19.6629   -2.3625  -10.4736 C   0  0  0  0  0  0  0  0  0  0  0  0
   19.1881   -3.6258  -10.4642 F   0  0  0  0  0  0  0  0  0  0  0  0
   18.9857   -1.3367   -9.8508 C   0  0  0  0  0  0  0  0  0  0  0  0
   19.4660   -0.0438   -9.8570 C   0  0  0  0  0  0  0  0  0  0  0  0
   18.7311    1.0167   -9.1925 C   0  0  0  0  0  0  0  0  0  0  0  0
   18.1629    1.8687   -8.6563 N   0  0  0  0  0  0  0  0  0  0  0  0
   20.6569    0.1899  -10.5132 C   0  0  0  0  0  0  0  0  0  0  0  0
   24.9244   -0.3009  -11.5604 C   0  0  0  0  0  0  0  0  0  0  0  0
   26.0742   -0.2881  -10.8053 C   0  0  0  0  0  0  0  0  0  0  0  0
   27.1955    0.0383  -11.6904 C   0  0  2  0  0  0  0  0  0  0  0  0
   28.1616    0.8588  -11.1201 O   0  0  0  0  0  0  0  0  0  0  0  0
   26.5937    0.7124  -12.8965 C   0  0  2  0  0  0  0  0  0  0  0  0
   27.2738    0.4033  -14.0575 F   0  0  0  0  0  0  0  0  0  0  0  0
   26.4193    2.0542  -12.7476 F   0  0  0  0  0  0  0  0  0  0  0  0
   25.2408    0.0266  -12.9921 C   0  0  0  0  0  0  0  0  0  0  0  0
  1  2  1  1
  2  3  2  0
  2  4  2  0
  2  5  1  6
  5  6  2  0
  6  7  1  0
  7  8  2  0
  8  9  1  0
  9 10  1  0
 10 11  2  0
 11 12  1  0
 12 13  1  0
 12 14  2  0
 14 15  1  0
 15 16  1  0
 16 17  3  0
 15 18  2  0
  8 19  1  0
 19 20  2  0
 20 21  1  0
 21 22  1  1
 21 23  1  0
 23 24  1  6
 23 25  1  0
 23 26  1  0
 20  5  1  0
 18 10  1  0
 26 19  1  1
M  END
$$$$
