_rank9
     RDKit          3D

 26 28  0  0  0  0  0  0  0  0999 V2000
   28.4648   -1.9861   -9.2529 C   0  0  0  0  0  0  0  0  0  0  0  0
   27.6003   -0.5294   -8.6533 S   0  0  1  0  0  6  0  0  0  0  0  0
   27.3146   -0.8073   -7.1959 O   0  0  0  0  0  0  0  0  0  0  0  0
   28.4567    0.6674   -8.8374 O   0  0  0  0  0  0  0  0  0  0  0  0
   26.0999   -0.4447   -9.5382 C   0  0  0  0  0  0  0  0  0  0  0  0
   24.8674   -0.6922   -8.9672 C   0  0  0  0  0  0  0  0  0  0  0  0
   23.7158   -0.6074   -9.7215 C   0  0  0  0  0  0  0  0  0  0  0  0
   23.7524   -0.2729  -11.0704 C   0  0  0  0  0  0  0  0  0  0  0  0
   22.5838   -0.1885  -11.8289 O   0  0  0  0  0  0  0  0  0  0  0  0
   21.4020   -0.5685  -11.2142 C   0  0  0  0  0  0  0  0  0  0  0  0
   21.0102   -1.8761  -11.3165 C   0  0  0  0  0  0  0  0  0  0  0  0
   19.8331   -2.2529  -10.7039 C   0  0  0  0  0  0  0  0  0  0  0  0
   19.4467   -3.5421  -10.8046 F   0  0  0  0  0  0  0  0  0  0  0  0
   19.0803   -1.3301  -10.0106 C   0  0  0  0  0  0  0  0  0  0  0  0
   19.4701   -0.0114   -9.9043 C   0  0  0  0  0  0  0  0  0  0  0  0
   18.6570    0.9384   -9.1676 C   0  0  0  0  0  0  0  0  0  0  0  0
   18.0244    1.7078   -8.5807 N   0  0  0  0  0  0  0  0  0  0  0  0
   20.6488    0.3558  -10.5204 C   0  0  0  0  0  0  0  0  0  0  0  0
   24.9928   -0.0311  -11.6150 C   0  0  0  0  0  0  0  0  0  0  0  0
   26.1498   -0.1121  -10.8752 C   0  0  0  0  0  0  0  0  0  0  0  0
   27.2768    0.1983  -11.7589 C   0  0  2  0  0  0  0  0  0  0  0  0
   28.2898    0.9410  -11.1639 O   0  0  0  0  0  0  0  0  0  0  0  0
   26.6975    0.9580  -12.9244 C   0  0  2  0  0  0  0  0  0  0  0  0
   27.3483    0.6697  -14.1073 F   0  0  0  0  0  0  0  0  0  0  0  0
   26.5937    2.2984  -12.7112 F   0  0  0  0  0  0  0  0  0  0  0  0
   25.3103    0.3469  -13.0340 C   0  0  0  0  0  0  0  0  0  0  0  0
  1  2  1  1
  2  3  2  0
  2  4  2  0
  2  5  1  6
  5  6  2  0
  6  7  1  0
  7  8  2  0
  8  9  1  0
  9 10  1  0
 10 11  2  0
 11 12  1  0
 12 13  1  0
 12 14  2  0
 14 15  1  0
 15 16  1  0
 16 17  3  0
 15 18  2  0
  8 19  1  0
 19 20  2  0
 20 21  1  0
 21 22  1  1
 21 23  1  0
 23 24  1  6
 23 25  1  0
 23 26  1  0
 20  5  1  0
 18 10  1  0
 26 19  1  1
M  END
$$$$
