_rank6
     RDKit          3D

 26 28  0  0  0  0  0  0  0  0999 V2000
   27.6346   -1.5903   -7.3055 C   0  0  0  0  0  0  0  0  0  0  0  0
   27.7731   -0.4118   -8.6549 S   0  0  1  0  0  6  0  0  0  0  0  0
   27.9048    0.9394   -7.9918 O   0  0  0  0  0  0  0  0  0  0  0  0
   28.9555   -0.7451   -9.4860 O   0  0  0  0  0  0  0  0  0  0  0  0
   26.2696   -0.4880   -9.5352 C   0  0  0  0  0  0  0  0  0  0  0  0
   25.0830   -0.9164   -8.9742 C   0  0  0  0  0  0  0  0  0  0  0  0
   23.9259   -0.9522   -9.7241 C   0  0  0  0  0  0  0  0  0  0  0  0
   23.9112   -0.5624  -11.0584 C   0  0  0  0  0  0  0  0  0  0  0  0
   22.7373   -0.6006  -11.8125 O   0  0  0  0  0  0  0  0  0  0  0  0
   21.5588   -0.8666  -11.1350 C   0  0  0  0  0  0  0  0  0  0  0  0
   21.0504   -2.1363  -11.1937 C   0  0  0  0  0  0  0  0  0  0  0  0
   19.8767   -2.3995  -10.5185 C   0  0  0  0  0  0  0  0  0  0  0  0
   19.3754   -3.6513  -10.5762 F   0  0  0  0  0  0  0  0  0  0  0  0
   19.2419   -1.4043   -9.8076 C   0  0  0  0  0  0  0  0  0  0  0  0
   19.7494   -0.1234   -9.7449 C   0  0  0  0  0  0  0  0  0  0  0  0
   19.0590    0.9047   -8.9882 C   0  0  0  0  0  0  0  0  0  0  0  0
   18.4940    1.7226   -8.3982 N   0  0  0  0  0  0  0  0  0  0  0  0
   20.9237    0.1302  -10.4235 C   0  0  0  0  0  0  0  0  0  0  0  0
   25.1066   -0.1396  -11.5933 C   0  0  0  0  0  0  0  0  0  0  0  0
   26.2684   -0.0987  -10.8578 C   0  0  0  0  0  0  0  0  0  0  0  0
   27.3405    0.3907  -11.7286 C   0  0  2  0  0  0  0  0  0  0  0  0
   28.2516    1.2347  -11.1046 O   0  0  0  0  0  0  0  0  0  0  0  0
   26.6608    1.1144  -12.8624 C   0  0  2  0  0  0  0  0  0  0  0  0
   27.3370    0.9607  -14.0562 F   0  0  0  0  0  0  0  0  0  0  0  0
   26.3847    2.4203  -12.5954 F   0  0  0  0  0  0  0  0  0  0  0  0
   25.3643    0.3328  -12.9960 C   0  0  0  0  0  0  0  0  0  0  0  0
  1  2  1  1
  2  3  2  0
  2  4  2  0
  2  5  1  6
  5  6  2  0
  6  7  1  0
  7  8  2  0
  8  9  1  0
  9 10  1  0
 10 11  2  0
 11 12  1  0
 12 13  1  0
 12 14  2  0
 14 15  1  0
 15 16  1  0
 16 17  3  0
 15 18  2  0
  8 19  1  0
 19 20  2  0
 20 21  1  0
 21 22  1  1
 21 23  1  0
 23 24  1  6
 23 25  1  0
 23 26  1  0
 20  5  1  0
 18 10  1  0
 26 19  1  1
M  END
$$$$
