_rank17
     RDKit          3D

 26 28  0  0  0  0  0  0  0  0999 V2000
   28.2735   -2.0088   -9.3021 C   0  0  0  0  0  0  0  0  0  0  0  0
   27.4810   -0.5675   -8.5784 S   0  0  1  0  0  6  0  0  0  0  0  0
   27.2017   -0.9454   -7.1424 O   0  0  0  0  0  0  0  0  0  0  0  0
   28.3865    0.6024   -8.6834 O   0  0  0  0  0  0  0  0  0  0  0  0
   25.9748   -0.3506   -9.4302 C   0  0  0  0  0  0  0  0  0  0  0  0
   24.7383   -0.5340   -8.8438 C   0  0  0  0  0  0  0  0  0  0  0  0
   23.5823   -0.3451   -9.5720 C   0  0  0  0  0  0  0  0  0  0  0  0
   23.6182    0.0330  -10.9093 C   0  0  0  0  0  0  0  0  0  0  0  0
   22.4452    0.2227  -11.6414 O   0  0  0  0  0  0  0  0  0  0  0  0
   21.2576   -0.1691  -11.0457 C   0  0  0  0  0  0  0  0  0  0  0  0
   20.5666    0.7553  -10.3094 C   0  0  0  0  0  0  0  0  0  0  0  0
   19.3841    0.3635   -9.7169 C   0  0  0  0  0  0  0  0  0  0  0  0
   18.7027    1.2748   -8.9909 F   0  0  0  0  0  0  0  0  0  0  0  0
   18.9206   -0.9252   -9.8685 C   0  0  0  0  0  0  0  0  0  0  0  0
   19.6125   -1.8606  -10.6091 C   0  0  0  0  0  0  0  0  0  0  0  0
   19.1000   -3.2109  -10.7515 C   0  0  0  0  0  0  0  0  0  0  0  0
   18.7102   -4.2932  -10.8666 N   0  0  0  0  0  0  0  0  0  0  0  0
   20.7940   -1.4595  -11.1979 C   0  0  0  0  0  0  0  0  0  0  0  0
   24.8627    0.2091  -11.4698 C   0  0  0  0  0  0  0  0  0  0  0  0
   26.0241    0.0243  -10.7561 C   0  0  0  0  0  0  0  0  0  0  0  0
   27.1542    0.2884  -11.6508 C   0  0  2  0  0  0  0  0  0  0  0  0
   28.2257    0.9396  -11.0512 O   0  0  0  0  0  0  0  0  0  0  0  0
   26.6080    1.1258  -12.7785 C   0  0  2  0  0  0  0  0  0  0  0  0
   27.2170    0.8356  -13.9830 F   0  0  0  0  0  0  0  0  0  0  0  0
   26.5997    2.4619  -12.5183 F   0  0  0  0  0  0  0  0  0  0  0  0
   25.1806    0.6141  -12.8812 C   0  0  0  0  0  0  0  0  0  0  0  0
  1  2  1  1
  2  3  2  0
  2  4  2  0
  2  5  1  6
  5  6  2  0
  6  7  1  0
  7  8  2  0
  8  9  1  0
  9 10  1  0
 10 11  2  0
 11 12  1  0
 12 13  1  0
 12 14  2  0
 14 15  1  0
 15 16  1  0
 16 17  3  0
 15 18  2  0
  8 19  1  0
 19 20  2  0
 20 21  1  0
 21 22  1  1
 21 23  1  0
 23 24  1  6
 23 25  1  0
 23 26  1  0
 20  5  1  0
 18 10  1  0
 26 19  1  1
M  END
$$$$
