_rank14
     RDKit          3D

 26 28  0  0  0  0  0  0  0  0999 V2000
   28.3422   -1.9500   -8.9106 C   0  0  0  0  0  0  0  0  0  0  0  0
   27.5121   -0.4149   -8.4824 S   0  0  1  0  0  6  0  0  0  0  0  0
   27.2139   -0.5219   -7.0051 O   0  0  0  0  0  0  0  0  0  0  0  0
   28.3989    0.7327   -8.7928 O   0  0  0  0  0  0  0  0  0  0  0  0
   26.0177   -0.3926   -9.3811 C   0  0  0  0  0  0  0  0  0  0  0  0
   24.7839   -0.6271   -8.8074 C   0  0  0  0  0  0  0  0  0  0  0  0
   23.6372   -0.5939   -9.5732 C   0  0  0  0  0  0  0  0  0  0  0  0
   23.6802   -0.3260  -10.9367 C   0  0  0  0  0  0  0  0  0  0  0  0
   22.5167   -0.2936  -11.7068 O   0  0  0  0  0  0  0  0  0  0  0  0
   21.3179   -0.5213  -11.0512 C   0  0  0  0  0  0  0  0  0  0  0  0
   20.7591    0.5106  -10.3462 C   0  0  0  0  0  0  0  0  0  0  0  0
   19.5653    0.2821   -9.6940 C   0  0  0  0  0  0  0  0  0  0  0  0
   19.0142    1.2994   -8.9989 F   0  0  0  0  0  0  0  0  0  0  0  0
   18.9606   -0.9545   -9.7570 C   0  0  0  0  0  0  0  0  0  0  0  0
   19.5190   -1.9977  -10.4657 C   0  0  0  0  0  0  0  0  0  0  0  0
   18.8595   -3.2895  -10.5145 C   0  0  0  0  0  0  0  0  0  0  0  0
   18.3513   -4.3269  -10.5582 N   0  0  0  0  0  0  0  0  0  0  0  0
   20.7130   -1.7596  -11.1147 C   0  0  0  0  0  0  0  0  0  0  0  0
   24.9219   -0.0959  -11.4837 C   0  0  0  0  0  0  0  0  0  0  0  0
   26.0740   -0.1258  -10.7326 C   0  0  0  0  0  0  0  0  0  0  0  0
   27.2040    0.1546  -11.6224 C   0  0  2  0  0  0  0  0  0  0  0  0
   28.2033    0.9384  -11.0576 O   0  0  0  0  0  0  0  0  0  0  0  0
   26.6246    0.8486  -12.8281 C   0  0  2  0  0  0  0  0  0  0  0  0
   27.2880    0.5105  -13.9907 F   0  0  0  0  0  0  0  0  0  0  0  0
   26.5029    2.1965  -12.6822 F   0  0  0  0  0  0  0  0  0  0  0  0
   25.2458    0.2156  -12.9173 C   0  0  0  0  0  0  0  0  0  0  0  0
  1  2  1  1
  2  3  2  0
  2  4  2  0
  2  5  1  6
  5  6  2  0
  6  7  1  0
  7  8  2  0
  8  9  1  0
  9 10  1  0
 10 11  2  0
 11 12  1  0
 12 13  1  0
 12 14  2  0
 14 15  1  0
 15 16  1  0
 16 17  3  0
 15 18  2  0
  8 19  1  0
 19 20  2  0
 20 21  1  0
 21 22  1  1
 21 23  1  0
 23 24  1  6
 23 25  1  0
 23 26  1  0
 20  5  1  0
 18 10  1  0
 26 19  1  1
M  END
$$$$
