_rank8
     RDKit          3D

 26 28  0  0  0  0  0  0  0  0999 V2000
   28.6581   -1.6790   -9.5497 C   0  0  0  0  0  0  0  0  0  0  0  0
   27.5852   -0.5450   -8.6597 S   0  0  1  0  0  6  0  0  0  0  0  0
   27.3279   -1.2047   -7.3250 O   0  0  0  0  0  0  0  0  0  0  0  0
   28.2607    0.7673   -8.5146 O   0  0  0  0  0  0  0  0  0  0  0  0
   26.0976   -0.4569   -9.5656 C   0  0  0  0  0  0  0  0  0  0  0  0
   24.8608   -0.7439   -9.0230 C   0  0  0  0  0  0  0  0  0  0  0  0
   23.7198   -0.6540   -9.7926 C   0  0  0  0  0  0  0  0  0  0  0  0
   23.7716   -0.2750  -11.1292 C   0  0  0  0  0  0  0  0  0  0  0  0
   22.6138   -0.1856  -11.9034 O   0  0  0  0  0  0  0  0  0  0  0  0
   21.4172   -0.5236  -11.2929 C   0  0  0  0  0  0  0  0  0  0  0  0
   20.9878   -1.8204  -11.3830 C   0  0  0  0  0  0  0  0  0  0  0  0
   19.7960   -2.1553  -10.7745 C   0  0  0  0  0  0  0  0  0  0  0  0
   19.3726   -3.4338  -10.8632 F   0  0  0  0  0  0  0  0  0  0  0  0
   19.0660   -1.2029  -10.0974 C   0  0  0  0  0  0  0  0  0  0  0  0
   19.4936    0.1050  -10.0034 C   0  0  0  0  0  0  0  0  0  0  0  0
   18.7036    1.0868   -9.2835 C   0  0  0  0  0  0  0  0  0  0  0  0
   18.0596    1.8661   -8.7228 N   0  0  0  0  0  0  0  0  0  0  0  0
   20.6867    0.4304  -10.6151 C   0  0  0  0  0  0  0  0  0  0  0  0
   25.0161    0.0055  -11.6456 C   0  0  0  0  0  0  0  0  0  0  0  0
   26.1626   -0.0800  -10.8902 C   0  0  0  0  0  0  0  0  0  0  0  0
   27.2976    0.2782  -11.7449 C   0  0  2  0  0  0  0  0  0  0  0  0
   28.2881    1.0181  -11.1099 O   0  0  0  0  0  0  0  0  0  0  0  0
   26.7235    1.0656  -12.8944 C   0  0  2  0  0  0  0  0  0  0  0  0
   27.3976    0.8273  -14.0753 F   0  0  0  0  0  0  0  0  0  0  0  0
   26.5929    2.3964  -12.6396 F   0  0  0  0  0  0  0  0  0  0  0  0
   25.3490    0.4350  -13.0462 C   0  0  0  0  0  0  0  0  0  0  0  0
  1  2  1  1
  2  3  2  0
  2  4  2  0
  2  5  1  6
  5  6  2  0
  6  7  1  0
  7  8  2  0
  8  9  1  0
  9 10  1  0
 10 11  2  0
 11 12  1  0
 12 13  1  0
 12 14  2  0
 14 15  1  0
 15 16  1  0
 16 17  3  0
 15 18  2  0
  8 19  1  0
 19 20  2  0
 20 21  1  0
 21 22  1  1
 21 23  1  0
 23 24  1  6
 23 25  1  0
 23 26  1  0
 20  5  1  0
 18 10  1  0
 26 19  1  1
M  END
$$$$
