_rank13
     RDKit          3D

 26 28  0  0  0  0  0  0  0  0999 V2000
   28.8194   -1.7783   -9.3136 C   0  0  0  0  0  0  0  0  0  0  0  0
   27.8500   -0.4392   -8.6092 S   0  0  1  0  0  6  0  0  0  0  0  0
   27.5680   -0.8579   -7.1851 O   0  0  0  0  0  0  0  0  0  0  0  0
   28.6240    0.8240   -8.6784 O   0  0  0  0  0  0  0  0  0  0  0  0
   26.3573   -0.3820   -9.5091 C   0  0  0  0  0  0  0  0  0  0  0  0
   25.1219   -0.6337   -8.9461 C   0  0  0  0  0  0  0  0  0  0  0  0
   23.9767   -0.5709   -9.7122 C   0  0  0  0  0  0  0  0  0  0  0  0
   24.0227   -0.2553  -11.0653 C   0  0  0  0  0  0  0  0  0  0  0  0
   22.8605   -0.1932  -11.8357 O   0  0  0  0  0  0  0  0  0  0  0  0
   21.6683   -0.5169  -11.2091 C   0  0  0  0  0  0  0  0  0  0  0  0
   21.2528   -1.8208  -11.2418 C   0  0  0  0  0  0  0  0  0  0  0  0
   20.0653   -2.1415  -10.6174 C   0  0  0  0  0  0  0  0  0  0  0  0
   19.6555   -3.4271  -10.6495 F   0  0  0  0  0  0  0  0  0  0  0  0
   19.3259   -1.1682   -9.9813 C   0  0  0  0  0  0  0  0  0  0  0  0
   19.7396    0.1470   -9.9451 C   0  0  0  0  0  0  0  0  0  0  0  0
   18.9401    1.1508   -9.2675 C   0  0  0  0  0  0  0  0  0  0  0  0
   18.2884    1.9470   -8.7403 N   0  0  0  0  0  0  0  0  0  0  0  0
   20.9285    0.4580  -10.5724 C   0  0  0  0  0  0  0  0  0  0  0  0
   25.2658   -0.0089  -11.6018 C   0  0  0  0  0  0  0  0  0  0  0  0
   26.4165   -0.0678  -10.8502 C   0  0  0  0  0  0  0  0  0  0  0  0
   27.5487    0.2412  -11.7277 C   0  0  2  0  0  0  0  0  0  0  0  0
   28.5487    1.0023  -11.1340 O   0  0  0  0  0  0  0  0  0  0  0  0
   26.9730    0.9785  -12.9093 C   0  0  2  0  0  0  0  0  0  0  0  0
   27.6377    0.6800  -14.0818 F   0  0  0  0  0  0  0  0  0  0  0  0
   26.8540    2.3207  -12.7161 F   0  0  0  0  0  0  0  0  0  0  0  0
   25.5929    0.3522  -13.0230 C   0  0  0  0  0  0  0  0  0  0  0  0
  1  2  1  1
  2  3  2  0
  2  4  2  0
  2  5  1  6
  5  6  2  0
  6  7  1  0
  7  8  2  0
  8  9  1  0
  9 10  1  0
 10 11  2  0
 11 12  1  0
 12 13  1  0
 12 14  2  0
 14 15  1  0
 15 16  1  0
 16 17  3  0
 15 18  2  0
  8 19  1  0
 19 20  2  0
 20 21  1  0
 21 22  1  1
 21 23  1  0
 23 24  1  6
 23 25  1  0
 23 26  1  0
 20  5  1  0
 18 10  1  0
 26 19  1  1
M  END
$$$$
