_rank12
     RDKit          3D

 26 28  0  0  0  0  0  0  0  0999 V2000
   27.8078    1.3662   -8.1886 C   0  0  0  0  0  0  0  0  0  0  0  0
   27.3026   -0.3576   -8.2361 S   0  0  1  0  0  6  0  0  0  0  0  0
   28.4093   -1.0770   -8.9714 O   0  0  0  0  0  0  0  0  0  0  0  0
   27.1293   -0.8627   -6.8525 O   0  0  0  0  0  0  0  0  0  0  0  0
   25.8371   -0.4183   -9.1795 C   0  0  0  0  0  0  0  0  0  0  0  0
   24.5763   -0.4750   -8.6196 C   0  0  0  0  0  0  0  0  0  0  0  0
   23.4548   -0.5197   -9.4213 C   0  0  0  0  0  0  0  0  0  0  0  0
   23.5508   -0.5095  -10.8081 C   0  0  0  0  0  0  0  0  0  0  0  0
   22.4125   -0.5549  -11.6145 O   0  0  0  0  0  0  0  0  0  0  0  0
   21.1883   -0.6619  -10.9751 C   0  0  0  0  0  0  0  0  0  0  0  0
   20.7782    0.3770  -10.1835 C   0  0  0  0  0  0  0  0  0  0  0  0
   19.5589    0.2688   -9.5475 C   0  0  0  0  0  0  0  0  0  0  0  0
   19.1544    1.2930   -8.7671 F   0  0  0  0  0  0  0  0  0  0  0  0
   18.7834   -0.8583   -9.7115 C   0  0  0  0  0  0  0  0  0  0  0  0
   19.1915   -1.9079  -10.5078 C   0  0  0  0  0  0  0  0  0  0  0  0
   18.3536   -3.0828  -10.6620 C   0  0  0  0  0  0  0  0  0  0  0  0
   17.6744   -4.0084  -10.7970 N   0  0  0  0  0  0  0  0  0  0  0  0
   20.4124   -1.7905  -11.1397 C   0  0  0  0  0  0  0  0  0  0  0  0
   24.8184   -0.4526  -11.3407 C   0  0  0  0  0  0  0  0  0  0  0  0
   25.9459   -0.4077  -10.5539 C   0  0  0  0  0  0  0  0  0  0  0  0
   27.1145   -0.3582  -11.4367 C   0  0  2  0  0  0  0  0  0  0  0  0
   28.1442    0.4596  -10.9865 O   0  0  0  0  0  0  0  0  0  0  0  0
   26.6112    0.1336  -12.7694 C   0  0  2  0  0  0  0  0  0  0  0  0
   27.2838   -0.4483  -13.8253 F   0  0  0  0  0  0  0  0  0  0  0  0
   26.5683    1.4900  -12.8755 F   0  0  0  0  0  0  0  0  0  0  0  0
   25.1992   -0.4280  -12.7939 C   0  0  0  0  0  0  0  0  0  0  0  0
  1  2  1  1
  2  3  2  0
  2  4  2  0
  2  5  1  6
  5  6  2  0
  6  7  1  0
  7  8  2  0
  8  9  1  0
  9 10  1  0
 10 11  2  0
 11 12  1  0
 12 13  1  0
 12 14  2  0
 14 15  1  0
 15 16  1  0
 16 17  3  0
 15 18  2  0
  8 19  1  0
 19 20  2  0
 20 21  1  0
 21 22  1  1
 21 23  1  0
 23 24  1  6
 23 25  1  0
 23 26  1  0
 20  5  1  0
 18 10  1  0
 26 19  1  1
M  END
$$$$
