_rank18
     RDKit          3D

 26 28  0  0  0  0  0  0  0  0999 V2000
   27.7709   -2.0898   -7.9727 C   0  0  0  0  0  0  0  0  0  0  0  0
   27.6854   -0.4482   -8.6986 S   0  0  1  0  0  6  0  0  0  0  0  0
   27.6810    0.5057   -7.5269 O   0  0  0  0  0  0  0  0  0  0  0  0
   28.8532   -0.2370   -9.5881 O   0  0  0  0  0  0  0  0  0  0  0  0
   26.1578   -0.3554   -9.5347 C   0  0  0  0  0  0  0  0  0  0  0  0
   24.9452   -0.6240   -8.9315 C   0  0  0  0  0  0  0  0  0  0  0  0
   23.7702   -0.5313   -9.6478 C   0  0  0  0  0  0  0  0  0  0  0  0
   23.7628   -0.1679  -10.9896 C   0  0  0  0  0  0  0  0  0  0  0  0
   22.5707   -0.0756  -11.7097 O   0  0  0  0  0  0  0  0  0  0  0  0
   21.3966   -0.3466  -11.0265 C   0  0  0  0  0  0  0  0  0  0  0  0
   20.8145    0.6658  -10.3122 C   0  0  0  0  0  0  0  0  0  0  0  0
   19.6454    0.3942   -9.6324 C   0  0  0  0  0  0  0  0  0  0  0  0
   19.0714    1.3923   -8.9281 F   0  0  0  0  0  0  0  0  0  0  0  0
   19.0875   -0.8649   -9.6780 C   0  0  0  0  0  0  0  0  0  0  0  0
   19.6694   -1.8886  -10.3960 C   0  0  0  0  0  0  0  0  0  0  0  0
   19.0590   -3.2050  -10.4260 C   0  0  0  0  0  0  0  0  0  0  0  0
   18.5564   -4.2459  -10.4421 N   0  0  0  0  0  0  0  0  0  0  0  0
   20.8385   -1.6074  -11.0726 C   0  0  0  0  0  0  0  0  0  0  0  0
   24.9841    0.0944  -11.5670 C   0  0  0  0  0  0  0  0  0  0  0  0
   26.1640    0.0060  -10.8652 C   0  0  0  0  0  0  0  0  0  0  0  0
   27.2610    0.3433  -11.7763 C   0  0  2  0  0  0  0  0  0  0  0  0
   28.2871    1.0804  -11.1970 O   0  0  0  0  0  0  0  0  0  0  0  0
   26.6409    1.1235  -12.9068 C   0  0  2  0  0  0  0  0  0  0  0  0
   27.2566    0.8653  -14.1151 F   0  0  0  0  0  0  0  0  0  0  0  0
   26.5350    2.4583  -12.6616 F   0  0  0  0  0  0  0  0  0  0  0  0
   25.2550    0.5049  -12.9866 C   0  0  0  0  0  0  0  0  0  0  0  0
  1  2  1  1
  2  3  2  0
  2  4  2  0
  2  5  1  6
  5  6  2  0
  6  7  1  0
  7  8  2  0
  8  9  1  0
  9 10  1  0
 10 11  2  0
 11 12  1  0
 12 13  1  0
 12 14  2  0
 14 15  1  0
 15 16  1  0
 16 17  3  0
 15 18  2  0
  8 19  1  0
 19 20  2  0
 20 21  1  0
 21 22  1  1
 21 23  1  0
 23 24  1  6
 23 25  1  0
 23 26  1  0
 20  5  1  0
 18 10  1  0
 26 19  1  1
M  END
$$$$
