_rank11
     RDKit          3D

 26 28  0  0  0  0  0  0  0  0999 V2000
   27.2082   -0.2165   -7.1428 C   0  0  0  0  0  0  0  0  0  0  0  0
   27.6168   -0.3645   -8.8864 S   0  0  1  0  0  6  0  0  0  0  0  0
   28.4445    0.8583   -9.2067 O   0  0  0  0  0  0  0  0  0  0  0  0
   28.3664   -1.6235   -9.1157 O   0  0  0  0  0  0  0  0  0  0  0  0
   26.1072   -0.2939   -9.7565 C   0  0  0  0  0  0  0  0  0  0  0  0
   24.8932   -0.6430   -9.1991 C   0  0  0  0  0  0  0  0  0  0  0  0
   23.7328   -0.5638   -9.9404 C   0  0  0  0  0  0  0  0  0  0  0  0
   23.7419   -0.1342  -11.2626 C   0  0  0  0  0  0  0  0  0  0  0  0
   22.5646   -0.0560  -12.0081 O   0  0  0  0  0  0  0  0  0  0  0  0
   21.3783   -0.3302  -11.3476 C   0  0  0  0  0  0  0  0  0  0  0  0
   20.8988   -1.6119  -11.3827 C   0  0  0  0  0  0  0  0  0  0  0  0
   19.7174   -1.8832  -10.7244 C   0  0  0  0  0  0  0  0  0  0  0  0
   19.2445   -3.1469  -10.7590 F   0  0  0  0  0  0  0  0  0  0  0  0
   19.0467   -0.8841  -10.0531 C   0  0  0  0  0  0  0  0  0  0  0  0
   19.5251    0.4089  -10.0143 C   0  0  0  0  0  0  0  0  0  0  0  0
   18.7972    1.4409   -9.2992 C   0  0  0  0  0  0  0  0  0  0  0  0
   18.2346    2.2704   -8.7232 N   0  0  0  0  0  0  0  0  0  0  0  0
   20.7074    0.6706  -10.6756 C   0  0  0  0  0  0  0  0  0  0  0  0
   24.9643    0.2077  -11.7942 C   0  0  0  0  0  0  0  0  0  0  0  0
   26.1298    0.1337  -11.0671 C   0  0  0  0  0  0  0  0  0  0  0  0
   27.2327    0.5619  -11.9316 C   0  0  2  0  0  0  0  0  0  0  0  0
   28.2119    1.3113  -11.2902 O   0  0  0  0  0  0  0  0  0  0  0  0
   26.6069    1.3711  -13.0382 C   0  0  2  0  0  0  0  0  0  0  0  0
   27.2619    1.1998  -14.2413 F   0  0  0  0  0  0  0  0  0  0  0  0
   26.4376    2.6863  -12.7306 F   0  0  0  0  0  0  0  0  0  0  0  0
   25.2512    0.6998  -13.1845 C   0  0  0  0  0  0  0  0  0  0  0  0
  1  2  1  1
  2  3  2  0
  2  4  2  0
  2  5  1  6
  5  6  2  0
  6  7  1  0
  7  8  2  0
  8  9  1  0
  9 10  1  0
 10 11  2  0
 11 12  1  0
 12 13  1  0
 12 14  2  0
 14 15  1  0
 15 16  1  0
 16 17  3  0
 15 18  2  0
  8 19  1  0
 19 20  2  0
 20 21  1  0
 21 22  1  1
 21 23  1  0
 23 24  1  6
 23 25  1  0
 23 26  1  0
 20  5  1  0
 18 10  1  0
 26 19  1  1
M  END
$$$$
