_rank20
     RDKit          3D

 26 28  0  0  0  0  0  0  0  0999 V2000
   27.2705   -0.8620   -7.1414 C   0  0  0  0  0  0  0  0  0  0  0  0
   27.6839   -0.2767   -8.7893 S   0  0  1  0  0  6  0  0  0  0  0  0
   27.9829    1.1953   -8.6259 O   0  0  0  0  0  0  0  0  0  0  0  0
   28.8517   -1.0311   -9.3059 O   0  0  0  0  0  0  0  0  0  0  0  0
   26.2497   -0.4784   -9.7608 C   0  0  0  0  0  0  0  0  0  0  0  0
   25.0823   -1.0393   -9.2826 C   0  0  0  0  0  0  0  0  0  0  0  0
   23.9805   -1.1698  -10.1020 C   0  0  0  0  0  0  0  0  0  0  0  0
   24.0038   -0.7461  -11.4258 C   0  0  0  0  0  0  0  0  0  0  0  0
   22.8859   -0.8806  -12.2505 O   0  0  0  0  0  0  0  0  0  0  0  0
   21.6463   -0.9221  -11.6337 C   0  0  0  0  0  0  0  0  0  0  0  0
   20.6209   -1.5557  -12.2826 C   0  0  0  0  0  0  0  0  0  0  0  0
   19.3872   -1.5961  -11.6669 C   0  0  0  0  0  0  0  0  0  0  0  0
   18.3761   -2.2208  -12.3066 F   0  0  0  0  0  0  0  0  0  0  0  0
   19.2032   -1.0115  -10.4328 C   0  0  0  0  0  0  0  0  0  0  0  0
   20.2325   -0.3719   -9.7744 C   0  0  0  0  0  0  0  0  0  0  0  0
   20.0094    0.2350   -8.4751 C   0  0  0  0  0  0  0  0  0  0  0  0
   19.8494    0.7119   -7.4342 N   0  0  0  0  0  0  0  0  0  0  0  0
   21.4627   -0.3366  -10.3981 C   0  0  0  0  0  0  0  0  0  0  0  0
   25.1791   -0.1908  -11.8776 C   0  0  0  0  0  0  0  0  0  0  0  0
   26.2860   -0.0542  -11.0721 C   0  0  0  0  0  0  0  0  0  0  0  0
   27.3516    0.5644  -11.8652 C   0  0  2  0  0  0  0  0  0  0  0  0
   28.1342    1.4776  -11.1685 O   0  0  0  0  0  0  0  0  0  0  0  0
   26.6690    1.2479  -13.0220 C   0  0  2  0  0  0  0  0  0  0  0  0
   27.4256    1.1963  -14.1756 F   0  0  0  0  0  0  0  0  0  0  0  0
   26.2464    2.5115  -12.7435 F   0  0  0  0  0  0  0  0  0  0  0  0
   25.4687    0.3442  -13.2513 C   0  0  0  0  0  0  0  0  0  0  0  0
  1  2  1  1
  2  3  2  0
  2  4  2  0
  2  5  1  6
  5  6  2  0
  6  7  1  0
  7  8  2  0
  8  9  1  0
  9 10  1  0
 10 11  2  0
 11 12  1  0
 12 13  1  0
 12 14  2  0
 14 15  1  0
 15 16  1  0
 16 17  3  0
 15 18  2  0
  8 19  1  0
 19 20  2  0
 20 21  1  0
 21 22  1  1
 21 23  1  0
 23 24  1  6
 23 25  1  0
 23 26  1  0
 20  5  1  0
 18 10  1  0
 26 19  1  1
M  END
$$$$
