_rank2
     RDKit          3D

 26 28  0  0  0  0  0  0  0  0999 V2000
   28.3567    1.0397   -8.7371 C   0  0  0  0  0  0  0  0  0  0  0  0
   27.5222   -0.5465   -8.6071 S   0  0  1  0  0  6  0  0  0  0  0  0
   28.4289   -1.5321   -9.3065 O   0  0  0  0  0  0  0  0  0  0  0  0
   27.3222   -0.8868   -7.1775 O   0  0  0  0  0  0  0  0  0  0  0  0
   26.0283   -0.3941   -9.4939 C   0  0  0  0  0  0  0  0  0  0  0  0
   24.7835   -0.5229   -8.9107 C   0  0  0  0  0  0  0  0  0  0  0  0
   23.6379   -0.3898   -9.6673 C   0  0  0  0  0  0  0  0  0  0  0  0
   23.6931   -0.1238  -11.0307 C   0  0  0  0  0  0  0  0  0  0  0  0
   22.5306    0.0100  -11.7915 O   0  0  0  0  0  0  0  0  0  0  0  0
   21.3374   -0.3607  -11.1935 C   0  0  0  0  0  0  0  0  0  0  0  0
   20.9431   -1.6681  -11.2905 C   0  0  0  0  0  0  0  0  0  0  0  0
   19.7546   -2.0355  -10.6945 C   0  0  0  0  0  0  0  0  0  0  0  0
   19.3658   -3.3244  -10.7900 F   0  0  0  0  0  0  0  0  0  0  0  0
   18.9932   -1.1041  -10.0226 C   0  0  0  0  0  0  0  0  0  0  0  0
   19.3854    0.2143   -9.9217 C   0  0  0  0  0  0  0  0  0  0  0  0
   18.5629    1.1734   -9.2077 C   0  0  0  0  0  0  0  0  0  0  0  0
   17.8957    1.9227   -8.6334 N   0  0  0  0  0  0  0  0  0  0  0  0
   20.5755    0.5722  -10.5210 C   0  0  0  0  0  0  0  0  0  0  0  0
   24.9456   -0.0001  -11.5873 C   0  0  0  0  0  0  0  0  0  0  0  0
   26.0968   -0.1304  -10.8454 C   0  0  0  0  0  0  0  0  0  0  0  0
   27.2396    0.0537  -11.7438 C   0  0  2  0  0  0  0  0  0  0  0  0
   28.3070    0.7475  -11.1860 O   0  0  0  0  0  0  0  0  0  0  0  0
   26.7126    0.7973  -12.9440 C   0  0  2  0  0  0  0  0  0  0  0  0
   27.3354    0.4058  -14.1122 F   0  0  0  0  0  0  0  0  0  0  0  0
   26.7083    2.1504  -12.7953 F   0  0  0  0  0  0  0  0  0  0  0  0
   25.2838    0.2853  -13.0230 C   0  0  0  0  0  0  0  0  0  0  0  0
  1  2  1  1
  2  3  2  0
  2  4  2  0
  2  5  1  6
  5  6  2  0
  6  7  1  0
  7  8  2  0
  8  9  1  0
  9 10  1  0
 10 11  2  0
 11 12  1  0
 12 13  1  0
 12 14  2  0
 14 15  1  0
 15 16  1  0
 16 17  3  0
 15 18  2  0
  8 19  1  0
 19 20  2  0
 20 21  1  0
 21 22  1  1
 21 23  1  0
 23 24  1  6
 23 25  1  0
 23 26  1  0
 20  5  1  0
 18 10  1  0
 26 19  1  1
M  END
$$$$
