_rank19
     RDKit          3D

 26 28  0  0  0  0  0  0  0  0999 V2000
   28.4937   -2.1989   -9.0452 C   0  0  0  0  0  0  0  0  0  0  0  0
   27.8071   -0.6856   -8.3614 S   0  0  1  0  0  6  0  0  0  0  0  0
   27.5160   -0.9995   -6.9124 O   0  0  0  0  0  0  0  0  0  0  0  0
   28.7886    0.4164   -8.5092 O   0  0  0  0  0  0  0  0  0  0  0  0
   26.3113   -0.3933   -9.2090 C   0  0  0  0  0  0  0  0  0  0  0  0
   25.0697   -0.4932   -8.6133 C   0  0  0  0  0  0  0  0  0  0  0  0
   23.9226   -0.2476   -9.3385 C   0  0  0  0  0  0  0  0  0  0  0  0
   23.9728    0.1058  -10.6821 C   0  0  0  0  0  0  0  0  0  0  0  0
   22.8086    0.3532  -11.4113 O   0  0  0  0  0  0  0  0  0  0  0  0
   21.6262   -0.1661  -10.9102 C   0  0  0  0  0  0  0  0  0  0  0  0
   21.4475   -1.5228  -10.9480 C   0  0  0  0  0  0  0  0  0  0  0  0
   20.2695   -2.0384  -10.4487 C   0  0  0  0  0  0  0  0  0  0  0  0
   20.0930   -3.3760  -10.4858 F   0  0  0  0  0  0  0  0  0  0  0  0
   19.3061   -1.2016   -9.9286 C   0  0  0  0  0  0  0  0  0  0  0  0
   19.4808    0.1659   -9.8880 C   0  0  0  0  0  0  0  0  0  0  0  0
   18.4486    1.0228   -9.3342 C   0  0  0  0  0  0  0  0  0  0  0  0
   17.6155    1.6893   -8.8891 N   0  0  0  0  0  0  0  0  0  0  0  0
   20.6621    0.6721  -10.3897 C   0  0  0  0  0  0  0  0  0  0  0  0
   25.2220    0.1984  -11.2518 C   0  0  0  0  0  0  0  0  0  0  0  0
   26.3748   -0.0436  -10.5411 C   0  0  0  0  0  0  0  0  0  0  0  0
   27.5130    0.1380  -11.4458 C   0  0  2  0  0  0  0  0  0  0  0  0
   28.6250    0.7340  -10.8627 O   0  0  0  0  0  0  0  0  0  0  0  0
   27.0108    0.9880  -12.5845 C   0  0  2  0  0  0  0  0  0  0  0  0
   27.5941    0.6425  -13.7871 F   0  0  0  0  0  0  0  0  0  0  0  0
   27.0835    2.3263  -12.3465 F   0  0  0  0  0  0  0  0  0  0  0  0
   25.5549    0.5607  -12.6714 C   0  0  0  0  0  0  0  0  0  0  0  0
  1  2  1  1
  2  3  2  0
  2  4  2  0
  2  5  1  6
  5  6  2  0
  6  7  1  0
  7  8  2  0
  8  9  1  0
  9 10  1  0
 10 11  2  0
 11 12  1  0
 12 13  1  0
 12 14  2  0
 14 15  1  0
 15 16  1  0
 16 17  3  0
 15 18  2  0
  8 19  1  0
 19 20  2  0
 20 21  1  0
 21 22  1  1
 21 23  1  0
 23 24  1  6
 23 25  1  0
 23 26  1  0
 20  5  1  0
 18 10  1  0
 26 19  1  1
M  END
$$$$
