_rank15
     RDKit          3D

 26 28  0  0  0  0  0  0  0  0999 V2000
   28.2267    0.4960   -7.8746 C   0  0  0  0  0  0  0  0  0  0  0  0
   27.6226   -1.0231   -8.6206 S   0  0  1  0  0  6  0  0  0  0  0  0
   28.6488   -1.3882   -9.6676 O   0  0  0  0  0  0  0  0  0  0  0  0
   27.4897   -2.0697   -7.5782 O   0  0  0  0  0  0  0  0  0  0  0  0
   26.1111   -0.6273   -9.3953 C   0  0  0  0  0  0  0  0  0  0  0  0
   24.8832   -0.7704   -8.7804 C   0  0  0  0  0  0  0  0  0  0  0  0
   23.7225   -0.4381   -9.4472 C   0  0  0  0  0  0  0  0  0  0  0  0
   23.7451    0.0482  -10.7494 C   0  0  0  0  0  0  0  0  0  0  0  0
   22.5674    0.3830  -11.4194 O   0  0  0  0  0  0  0  0  0  0  0  0
   21.3791   -0.0823  -10.8805 C   0  0  0  0  0  0  0  0  0  0  0  0
   20.5889    0.8012  -10.1955 C   0  0  0  0  0  0  0  0  0  0  0  0
   19.4060    0.3363   -9.6595 C   0  0  0  0  0  0  0  0  0  0  0  0
   18.6268    1.2072   -8.9841 F   0  0  0  0  0  0  0  0  0  0  0  0
   19.0396   -0.9829   -9.8153 C   0  0  0  0  0  0  0  0  0  0  0  0
   19.8316   -1.8773  -10.5044 C   0  0  0  0  0  0  0  0  0  0  0  0
   19.4201   -3.2611  -10.6526 C   0  0  0  0  0  0  0  0  0  0  0  0
   19.0858   -4.3633  -10.7521 N   0  0  0  0  0  0  0  0  0  0  0  0
   21.0128   -1.4031  -11.0368 C   0  0  0  0  0  0  0  0  0  0  0  0
   24.9812    0.1814  -11.3393 C   0  0  0  0  0  0  0  0  0  0  0  0
   26.1472   -0.1461  -10.6868 C   0  0  0  0  0  0  0  0  0  0  0  0
   27.2655    0.1109  -11.5981 C   0  0  2  0  0  0  0  0  0  0  0  0
   28.4007    0.6305  -10.9873 O   0  0  0  0  0  0  0  0  0  0  0  0
   26.7487    1.0778  -12.6322 C   0  0  2  0  0  0  0  0  0  0  0  0
   27.2967    0.8476  -13.8782 F   0  0  0  0  0  0  0  0  0  0  0  0
   26.8482    2.3842  -12.2630 F   0  0  0  0  0  0  0  0  0  0  0  0
   25.2846    0.6804  -12.7235 C   0  0  0  0  0  0  0  0  0  0  0  0
  1  2  1  1
  2  3  2  0
  2  4  2  0
  2  5  1  6
  5  6  2  0
  6  7  1  0
  7  8  2  0
  8  9  1  0
  9 10  1  0
 10 11  2  0
 11 12  1  0
 12 13  1  0
 12 14  2  0
 14 15  1  0
 15 16  1  0
 16 17  3  0
 15 18  2  0
  8 19  1  0
 19 20  2  0
 20 21  1  0
 21 22  1  1
 21 23  1  0
 23 24  1  6
 23 25  1  0
 23 26  1  0
 20  5  1  0
 18 10  1  0
 26 19  1  1
M  END
$$$$
