_rank7
     RDKit          3D

 26 28  0  0  0  0  0  0  0  0999 V2000
   28.3142    0.9393   -8.5656 C   0  0  0  0  0  0  0  0  0  0  0  0
   27.5542   -0.6809   -8.7273 S   0  0  1  0  0  6  0  0  0  0  0  0
   28.4938   -1.4761   -9.6034 O   0  0  0  0  0  0  0  0  0  0  0  0
   27.3913   -1.2893   -7.3845 O   0  0  0  0  0  0  0  0  0  0  0  0
   26.0417   -0.4375   -9.5606 C   0  0  0  0  0  0  0  0  0  0  0  0
   24.8095   -0.6009   -8.9596 C   0  0  0  0  0  0  0  0  0  0  0  0
   23.6481   -0.3916   -9.6735 C   0  0  0  0  0  0  0  0  0  0  0  0
   23.6743   -0.0122  -11.0107 C   0  0  0  0  0  0  0  0  0  0  0  0
   22.4959    0.1984  -11.7283 O   0  0  0  0  0  0  0  0  0  0  0  0
   21.3062   -0.1365  -11.1030 C   0  0  0  0  0  0  0  0  0  0  0  0
   20.6563    0.8319  -10.3862 C   0  0  0  0  0  0  0  0  0  0  0  0
   19.4716    0.4967   -9.7641 C   0  0  0  0  0  0  0  0  0  0  0  0
   18.8307    1.4515   -9.0574 F   0  0  0  0  0  0  0  0  0  0  0  0
   18.9656   -0.7807   -9.8678 C   0  0  0  0  0  0  0  0  0  0  0  0
   19.6160   -1.7604  -10.5885 C   0  0  0  0  0  0  0  0  0  0  0  0
   19.0591   -3.0974  -10.6804 C   0  0  0  0  0  0  0  0  0  0  0  0
   18.6335   -4.1695  -10.7582 N   0  0  0  0  0  0  0  0  0  0  0  0
   20.8000   -1.4156  -11.2072 C   0  0  0  0  0  0  0  0  0  0  0  0
   24.9147    0.1439  -11.5859 C   0  0  0  0  0  0  0  0  0  0  0  0
   26.0814   -0.0615  -10.8865 C   0  0  0  0  0  0  0  0  0  0  0  0
   27.2049    0.1848  -11.7944 C   0  0  2  0  0  0  0  0  0  0  0  0
   28.2943    0.8171  -11.2070 O   0  0  0  0  0  0  0  0  0  0  0  0
   26.6593    1.0330  -12.9144 C   0  0  2  0  0  0  0  0  0  0  0  0
   27.2488    0.7344  -14.1265 F   0  0  0  0  0  0  0  0  0  0  0  0
   26.6767    2.3686  -12.6524 F   0  0  0  0  0  0  0  0  0  0  0  0
   25.2224    0.5456  -13.0005 C   0  0  0  0  0  0  0  0  0  0  0  0
  1  2  1  1
  2  3  2  0
  2  4  2  0
  2  5  1  6
  5  6  2  0
  6  7  1  0
  7  8  2  0
  8  9  1  0
  9 10  1  0
 10 11  2  0
 11 12  1  0
 12 13  1  0
 12 14  2  0
 14 15  1  0
 15 16  1  0
 16 17  3  0
 15 18  2  0
  8 19  1  0
 19 20  2  0
 20 21  1  0
 21 22  1  1
 21 23  1  0
 23 24  1  6
 23 25  1  0
 23 26  1  0
 20  5  1  0
 18 10  1  0
 26 19  1  1
M  END
$$$$
