_rank7
     RDKit          3D

 18 20  0  0  0  0  0  0  0  0999 V2000
   25.0100    0.1927   -8.6281 C   0  0  0  0  0  0  0  0  0  0  0  0
   26.6732   -0.0702   -9.1853 S   0  0  2  0  0  6  0  0  0  0  0  0
   27.2951   -1.2625   -8.5325 O   0  0  0  0  0  0  0  0  0  0  0  0
   27.4744    1.1293   -8.7791 O   0  0  0  0  0  0  0  0  0  0  0  0
   26.6499   -0.2565  -10.9443 C   0  0  2  0  0  0  0  0  0  0  0  0
   27.1886    0.9700  -11.6529 C   0  0  0  0  0  0  0  0  0  0  0  0
   26.6362    0.8444  -13.0455 C   0  0  0  0  0  0  0  0  0  0  0  0
   25.5176   -0.1678  -12.9835 C   0  0  0  0  0  0  0  0  0  0  0  0
   25.2629   -0.3398  -11.5000 C   0  0  2  0  0  0  0  0  0  0  0  0
   24.4105    0.7356  -11.0799 N   0  0  0  0  0  0  0  0  0  0  0  0
   23.1506    0.1581  -10.7913 C   0  0  0  0  0  0  0  0  0  0  0  0
   21.9326    0.7208  -10.4743 C   0  0  0  0  0  0  0  0  0  0  0  0
   20.8097   -0.0771  -10.2267 C   0  0  0  0  0  0  0  0  0  0  0  0
   19.6286    0.5213   -9.9174 F   0  0  0  0  0  0  0  0  0  0  0  0
   20.9415   -1.4483  -10.3054 C   0  0  0  0  0  0  0  0  0  0  0  0
   22.1637   -2.0024  -10.6231 C   0  0  0  0  0  0  0  0  0  0  0  0
   23.2925   -1.2040  -10.8722 C   0  0  0  0  0  0  0  0  0  0  0  0
   24.5978   -1.5345  -11.2026 O   0  0  0  0  0  0  0  0  0  0  0  0
  2  1  1  1
  2  3  2  0
  2  4  2  0
  5  2  1  1
  5  6  1  0
  6  7  1  1
  7  8  1  1
  8  9  1  1
  9 10  1  1
 10 11  1  0
 11 12  2  0
 12 13  1  0
 13 14  1  0
 13 15  2  0
 15 16  1  0
 16 17  2  0
 17 18  1  0
  9  5  1  0
 17 11  1  0
  9 18  1  0
M  END
$$$$
