_rank1
     RDKit          3D

 18 20  0  0  0  0  0  0  0  0999 V2000
   27.6936   -2.1039   -8.9060 C   0  0  0  0  0  0  0  0  0  0  0  0
   26.1878   -1.2009   -9.1574 S   0  0  2  0  0  6  0  0  0  0  0  0
   26.0524   -0.0681   -8.1914 O   0  0  0  0  0  0  0  0  0  0  0  0
   25.0532   -2.1452   -8.8992 O   0  0  0  0  0  0  0  0  0  0  0  0
   26.1615   -0.6122  -10.8253 C   0  0  2  0  0  0  0  0  0  0  0  0
   26.8671    0.7213  -10.9685 C   0  0  0  0  0  0  0  0  0  0  0  0
   26.3200    1.2739  -12.2553 C   0  0  0  0  0  0  0  0  0  0  0  0
   25.0762    0.4815  -12.5787 C   0  0  0  0  0  0  0  0  0  0  0  0
   24.7828   -0.2753  -11.2994 C   0  0  2  0  0  0  0  0  0  0  0  0
   24.0756    0.6145  -10.4231 N   0  0  0  0  0  0  0  0  0  0  0  0
   22.7467    0.1320  -10.3502 C   0  0  0  0  0  0  0  0  0  0  0  0
   21.6105    0.6527   -9.7684 C   0  0  0  0  0  0  0  0  0  0  0  0
   20.3886   -0.0268   -9.8327 C   0  0  0  0  0  0  0  0  0  0  0  0
   19.2937    0.5247   -9.2444 F   0  0  0  0  0  0  0  0  0  0  0  0
   20.3380   -1.2370  -10.4933 C   0  0  0  0  0  0  0  0  0  0  0  0
   21.4795   -1.7502  -11.0723 C   0  0  0  0  0  0  0  0  0  0  0  0
   22.7074   -1.0705  -11.0094 C   0  0  0  0  0  0  0  0  0  0  0  0
   23.9611   -1.3885  -11.5085 O   0  0  0  0  0  0  0  0  0  0  0  0
  2  1  1  1
  2  3  2  0
  2  4  2  0
  5  2  1  1
  5  6  1  0
  6  7  1  1
  7  8  1  1
  8  9  1  1
  9 10  1  1
 10 11  1  0
 11 12  2  0
 12 13  1  0
 13 14  1  0
 13 15  2  0
 15 16  1  0
 16 17  2  0
 17 18  1  0
  9  5  1  0
 17 11  1  0
  9 18  1  0
M  END
$$$$
