_rank19
     RDKit          3D

 18 20  0  0  0  0  0  0  0  0999 V2000
   22.3225   -2.0530   -9.7022 C   0  0  0  0  0  0  0  0  0  0  0  0
   21.7730   -0.4762  -10.3004 S   0  0  2  0  0  6  0  0  0  0  0  0
   21.9434    0.5968   -9.2737 O   0  0  0  0  0  0  0  0  0  0  0  0
   20.3061   -0.5934  -10.5838 O   0  0  0  0  0  0  0  0  0  0  0  0
   22.6783   -0.0902  -11.7703 C   0  0  2  0  0  0  0  0  0  0  0  0
   22.5064   -1.1512  -12.8388 C   0  0  0  0  0  0  0  0  0  0  0  0
   23.6845   -0.9320  -13.7468 C   0  0  0  0  0  0  0  0  0  0  0  0
   24.6703   -0.0772  -12.9870 C   0  0  0  0  0  0  0  0  0  0  0  0
   24.1599   -0.1116  -11.5609 C   0  0  2  0  0  0  0  0  0  0  0  0
   24.6374   -1.3241  -10.9598 N   0  0  0  0  0  0  0  0  0  0  0  0
   25.6119   -0.9415  -10.0069 C   0  0  0  0  0  0  0  0  0  0  0  0
   26.4817   -1.6810   -9.2340 C   0  0  0  0  0  0  0  0  0  0  0  0
   27.3685   -1.0596   -8.3473 C   0  0  0  0  0  0  0  0  0  0  0  0
   28.2086   -1.8290   -7.6049 F   0  0  0  0  0  0  0  0  0  0  0  0
   27.3590    0.3171   -8.2575 C   0  0  0  0  0  0  0  0  0  0  0  0
   26.4855    1.0487   -9.0344 C   0  0  0  0  0  0  0  0  0  0  0  0
   25.5943    0.4278   -9.9254 C   0  0  0  0  0  0  0  0  0  0  0  0
   24.6446    0.9506  -10.7896 O   0  0  0  0  0  0  0  0  0  0  0  0
  2  1  1  1
  2  3  2  0
  2  4  2  0
  5  2  1  1
  5  6  1  0
  6  7  1  1
  7  8  1  1
  8  9  1  1
  9 10  1  1
 10 11  1  0
 11 12  2  0
 12 13  1  0
 13 14  1  0
 13 15  2  0
 15 16  1  0
 16 17  2  0
 17 18  1  0
  9  5  1  0
 17 11  1  0
  9 18  1  0
M  END
$$$$
