_rank8
     RDKit          3D

 18 20  0  0  0  0  0  0  0  0999 V2000
   26.3178   -2.1515   -8.8998 C   0  0  0  0  0  0  0  0  0  0  0  0
   26.7947   -0.4579   -9.1242 S   0  0  2  0  0  6  0  0  0  0  0  0
   28.1696   -0.1946   -8.5999 O   0  0  0  0  0  0  0  0  0  0  0  0
   25.8445    0.3823   -8.3261 O   0  0  0  0  0  0  0  0  0  0  0  0
   26.6939   -0.0732  -10.8479 C   0  0  2  0  0  0  0  0  0  0  0  0
   26.9946    1.3864  -11.1230 C   0  0  0  0  0  0  0  0  0  0  0  0
   26.3848    1.6235  -12.4766 C   0  0  0  0  0  0  0  0  0  0  0  0
   25.4403    0.4751  -12.7389 C   0  0  0  0  0  0  0  0  0  0  0  0
   25.3052   -0.2016  -11.3902 C   0  0  2  0  0  0  0  0  0  0  0  0
   24.3249    0.5272  -10.6370 N   0  0  0  0  0  0  0  0  0  0  0  0
   23.1882   -0.3112  -10.5426 C   0  0  0  0  0  0  0  0  0  0  0  0
   21.9197   -0.0880  -10.0508 C   0  0  0  0  0  0  0  0  0  0  0  0
   20.9495   -1.0965  -10.0680 C   0  0  0  0  0  0  0  0  0  0  0  0
   19.7114   -0.8314   -9.5722 F   0  0  0  0  0  0  0  0  0  0  0  0
   21.2848   -2.3292  -10.5894 C   0  0  0  0  0  0  0  0  0  0  0  0
   22.5561   -2.5434  -11.0790 C   0  0  0  0  0  0  0  0  0  0  0  0
   23.5321   -1.5330  -11.0632 C   0  0  0  0  0  0  0  0  0  0  0  0
   24.8502   -1.5210  -11.4928 O   0  0  0  0  0  0  0  0  0  0  0  0
  2  1  1  6
  2  3  2  0
  2  4  2  0
  5  2  1  1
  5  6  1  0
  6  7  1  1
  7  8  1  1
  8  9  1  1
  9 10  1  1
 10 11  1  0
 11 12  2  0
 12 13  1  0
 13 14  1  0
 13 15  2  0
 15 16  1  0
 16 17  2  0
 17 18  1  0
  9  5  1  0
 17 11  1  0
  9 18  1  0
M  END
$$$$
