_rank10
     RDKit          3D

 18 20  0  0  0  0  0  0  0  0999 V2000
   25.7352    1.3013   -8.5249 C   0  0  0  0  0  0  0  0  0  0  0  0
   26.2863   -0.3495   -8.8669 S   0  0  2  0  0  6  0  0  0  0  0  0
   25.5063   -1.3656   -8.0964 O   0  0  0  0  0  0  0  0  0  0  0  0
   27.7122   -0.4460   -8.4160 O   0  0  0  0  0  0  0  0  0  0  0  0
   26.1464   -0.6357  -10.6069 C   0  0  2  0  0  0  0  0  0  0  0  0
   26.8074    0.4604  -11.4182 C   0  0  0  0  0  0  0  0  0  0  0  0
   26.1711    0.3289  -12.7740 C   0  0  0  0  0  0  0  0  0  0  0  0
   24.9313   -0.5144  -12.5962 C   0  0  0  0  0  0  0  0  0  0  0  0
   24.7337   -0.5607  -11.0949 C   0  0  2  0  0  0  0  0  0  0  0  0
   24.0567    0.6449  -10.7104 N   0  0  0  0  0  0  0  0  0  0  0  0
   22.7474    0.2645  -10.3294 C   0  0  0  0  0  0  0  0  0  0  0  0
   21.6343    1.0073   -9.9977 C   0  0  0  0  0  0  0  0  0  0  0  0
   20.4289    0.3876   -9.6490 C   0  0  0  0  0  0  0  0  0  0  0  0
   19.3567    1.1602   -9.3290 F   0  0  0  0  0  0  0  0  0  0  0  0
   20.3708   -0.9909   -9.6421 C   0  0  0  0  0  0  0  0  0  0  0  0
   21.4891   -1.7258   -9.9753 C   0  0  0  0  0  0  0  0  0  0  0  0
   22.7005   -1.1066  -10.3258 C   0  0  0  0  0  0  0  0  0  0  0  0
   23.9304   -1.6326  -10.6902 O   0  0  0  0  0  0  0  0  0  0  0  0
  2  1  1  6
  2  3  2  0
  2  4  2  0
  5  2  1  1
  5  6  1  0
  6  7  1  1
  7  8  1  1
  8  9  1  1
  9 10  1  1
 10 11  1  0
 11 12  2  0
 12 13  1  0
 13 14  1  0
 13 15  2  0
 15 16  1  0
 16 17  2  0
 17 18  1  0
  9  5  1  0
 17 11  1  0
  9 18  1  0
M  END
$$$$
