_rank2
     RDKit          3D

 18 20  0  0  0  0  0  0  0  0999 V2000
   27.8726   -0.0099   -8.4309 C   0  0  0  0  0  0  0  0  0  0  0  0
   26.2175   -0.4073   -8.9297 S   0  0  2  0  0  6  0  0  0  0  0  0
   25.2303    0.5960   -8.4262 O   0  0  0  0  0  0  0  0  0  0  0  0
   25.8693   -1.7260   -8.3089 O   0  0  0  0  0  0  0  0  0  0  0  0
   26.1740   -0.5017  -10.6956 C   0  0  2  0  0  0  0  0  0  0  0  0
   26.7554    0.7378  -11.3455 C   0  0  0  0  0  0  0  0  0  0  0  0
   26.1882    0.7057  -12.7375 C   0  0  0  0  0  0  0  0  0  0  0  0
   25.0312   -0.2641  -12.7169 C   0  0  0  0  0  0  0  0  0  0  0  0
   24.7809   -0.5023  -11.2418 C   0  0  2  0  0  0  0  0  0  0  0  0
   23.9744    0.5824  -10.7594 N   0  0  0  0  0  0  0  0  0  0  0  0
   22.6949    0.0403  -10.4890 C   0  0  0  0  0  0  0  0  0  0  0  0
   21.5023    0.6328  -10.1322 C   0  0  0  0  0  0  0  0  0  0  0  0
   20.3508   -0.1325   -9.9153 C   0  0  0  0  0  0  0  0  0  0  0  0
   19.1964    0.4947   -9.5649 F   0  0  0  0  0  0  0  0  0  0  0  0
   20.4280   -1.5019  -10.0653 C   0  0  0  0  0  0  0  0  0  0  0  0
   21.6251   -2.0860  -10.4224 C   0  0  0  0  0  0  0  0  0  0  0  0
   22.7826   -1.3203  -10.6408 C   0  0  0  0  0  0  0  0  0  0  0  0
   24.0714   -1.6839  -10.9999 O   0  0  0  0  0  0  0  0  0  0  0  0
  2  1  1  6
  2  3  2  0
  2  4  2  0
  5  2  1  1
  5  6  1  0
  6  7  1  1
  7  8  1  1
  8  9  1  1
  9 10  1  1
 10 11  1  0
 11 12  2  0
 12 13  1  0
 13 14  1  0
 13 15  2  0
 15 16  1  0
 16 17  2  0
 17 18  1  0
  9  5  1  0
 17 11  1  0
  9 18  1  0
M  END
$$$$
