_rank15
     RDKit          3D

 18 20  0  0  0  0  0  0  0  0999 V2000
   21.8049   -0.8162   -9.1496 C   0  0  0  0  0  0  0  0  0  0  0  0
   22.1309   -1.4978  -10.7543 S   0  0  2  0  0  6  0  0  0  0  0  0
   20.8958   -2.0636  -11.3780 O   0  0  0  0  0  0  0  0  0  0  0  0
   23.0962   -2.6292  -10.5705 O   0  0  0  0  0  0  0  0  0  0  0  0
   22.8235   -0.2265  -11.7708 C   0  0  2  0  0  0  0  0  0  0  0  0
   23.0816   -0.7068  -13.1848 C   0  0  0  0  0  0  0  0  0  0  0  0
   24.0874    0.2774  -13.7140 C   0  0  0  0  0  0  0  0  0  0  0  0
   24.6611    1.0023  -12.5202 C   0  0  0  0  0  0  0  0  0  0  0  0
   24.1966    0.1796  -11.3359 C   0  0  2  0  0  0  0  0  0  0  0  0
   25.1035   -0.9234  -11.1932 N   0  0  0  0  0  0  0  0  0  0  0  0
   25.8487   -0.6788  -10.0147 C   0  0  0  0  0  0  0  0  0  0  0  0
   26.9331   -1.3264   -9.4619 C   0  0  0  0  0  0  0  0  0  0  0  0
   27.5053   -0.8850   -8.2634 C   0  0  0  0  0  0  0  0  0  0  0  0
   28.5740   -1.5546   -7.7550 F   0  0  0  0  0  0  0  0  0  0  0  0
   26.9627    0.2184   -7.6375 C   0  0  0  0  0  0  0  0  0  0  0  0
   25.8780    0.8599   -8.1977 C   0  0  0  0  0  0  0  0  0  0  0  0
   25.3015    0.4191   -9.4006 C   0  0  0  0  0  0  0  0  0  0  0  0
   24.2279    0.8982  -10.1355 O   0  0  0  0  0  0  0  0  0  0  0  0
  2  1  1  1
  2  3  2  0
  2  4  2  0
  5  2  1  1
  5  6  1  0
  6  7  1  1
  7  8  1  1
  8  9  1  1
  9 10  1  1
 10 11  1  0
 11 12  2  0
 12 13  1  0
 13 14  1  0
 13 15  2  0
 15 16  1  0
 16 17  2  0
 17 18  1  0
  9  5  1  0
 17 11  1  0
  9 18  1  0
M  END
$$$$
