_rank9
     RDKit          3D

 18 20  0  0  0  0  0  0  0  0999 V2000
   25.9601    1.1837   -8.5413 C   0  0  0  0  0  0  0  0  0  0  0  0
   26.2972   -0.4947   -9.0055 S   0  0  2  0  0  6  0  0  0  0  0  0
   25.3787   -1.4549   -8.3207 O   0  0  0  0  0  0  0  0  0  0  0  0
   27.6906   -0.8109   -8.5536 O   0  0  0  0  0  0  0  0  0  0  0  0
   26.1505   -0.6281  -10.7633 C   0  0  2  0  0  0  0  0  0  0  0  0
   26.7961    0.5420  -11.4780 C   0  0  0  0  0  0  0  0  0  0  0  0
   26.1537    0.5237  -12.8371 C   0  0  0  0  0  0  0  0  0  0  0  0
   24.9234   -0.3448  -12.7285 C   0  0  0  0  0  0  0  0  0  0  0  0
   24.7345   -0.5251  -11.2362 C   0  0  2  0  0  0  0  0  0  0  0  0
   24.0476    0.6348  -10.7439 N   0  0  0  0  0  0  0  0  0  0  0  0
   22.7443    0.2087  -10.3919 C   0  0  0  0  0  0  0  0  0  0  0  0
   21.6257    0.9077   -9.9909 C   0  0  0  0  0  0  0  0  0  0  0  0
   20.4285    0.2472   -9.6925 C   0  0  0  0  0  0  0  0  0  0  0  0
   19.3504    0.9775   -9.3008 F   0  0  0  0  0  0  0  0  0  0  0  0
   20.3842   -1.1271   -9.8068 C   0  0  0  0  0  0  0  0  0  0  0  0
   21.5079   -1.8181  -10.2086 C   0  0  0  0  0  0  0  0  0  0  0  0
   22.7111   -1.1578  -10.5088 C   0  0  0  0  0  0  0  0  0  0  0  0
   23.9441   -1.6368  -10.9238 O   0  0  0  0  0  0  0  0  0  0  0  0
  2  1  1  1
  2  3  2  0
  2  4  2  0
  5  2  1  1
  5  6  1  0
  6  7  1  1
  7  8  1  1
  8  9  1  1
  9 10  1  1
 10 11  1  0
 11 12  2  0
 12 13  1  0
 13 14  1  0
 13 15  2  0
 15 16  1  0
 16 17  2  0
 17 18  1  0
  9  5  1  0
 17 11  1  0
  9 18  1  0
M  END
$$$$
