_rank6
     RDKit          3D

 18 20  0  0  0  0  0  0  0  0999 V2000
   25.7794    0.9893   -8.5031 C   0  0  0  0  0  0  0  0  0  0  0  0
   26.5732   -0.4317   -9.2078 S   0  0  2  0  0  6  0  0  0  0  0  0
   25.9748   -1.7068   -8.7071 O   0  0  0  0  0  0  0  0  0  0  0  0
   28.0050   -0.4074   -8.7663 O   0  0  0  0  0  0  0  0  0  0  0  0
   26.4464   -0.3261  -10.9691 C   0  0  2  0  0  0  0  0  0  0  0  0
   27.0035    0.9788  -11.5018 C   0  0  0  0  0  0  0  0  0  0  0  0
   26.3715    1.1041  -12.8601 C   0  0  0  0  0  0  0  0  0  0  0  0
   25.2114    0.1383  -12.8945 C   0  0  0  0  0  0  0  0  0  0  0  0
   25.0292   -0.2648  -11.4455 C   0  0  2  0  0  0  0  0  0  0  0  0
   24.2522    0.7585  -10.8063 N   0  0  0  0  0  0  0  0  0  0  0  0
   22.9839    0.1895  -10.5386 C   0  0  0  0  0  0  0  0  0  0  0  0
   21.8126    0.7381  -10.0614 C   0  0  0  0  0  0  0  0  0  0  0  0
   20.6684   -0.0467   -9.8781 C   0  0  0  0  0  0  0  0  0  0  0  0
   19.5351    0.5371   -9.4051 F   0  0  0  0  0  0  0  0  0  0  0  0
   20.7309   -1.3904  -10.1851 C   0  0  0  0  0  0  0  0  0  0  0  0
   21.9068   -1.9306  -10.6619 C   0  0  0  0  0  0  0  0  0  0  0  0
   23.0569   -1.1453  -10.8469 C   0  0  0  0  0  0  0  0  0  0  0  0
   24.3254   -1.4662  -11.3052 O   0  0  0  0  0  0  0  0  0  0  0  0
  2  1  1  1
  2  3  2  0
  2  4  2  0
  5  2  1  1
  5  6  1  0
  6  7  1  1
  7  8  1  1
  8  9  1  1
  9 10  1  1
 10 11  1  0
 11 12  2  0
 12 13  1  0
 13 14  1  0
 13 15  2  0
 15 16  1  0
 16 17  2  0
 17 18  1  0
  9  5  1  0
 17 11  1  0
  9 18  1  0
M  END
$$$$
