_rank13
     RDKit          3D

 18 20  0  0  0  0  0  0  0  0999 V2000
   19.8533    0.2130   -8.8282 C   0  0  0  0  0  0  0  0  0  0  0  0
   20.9286    0.7639  -10.1268 S   0  0  2  0  0  6  0  0  0  0  0  0
   22.1961    1.3454   -9.5883 O   0  0  0  0  0  0  0  0  0  0  0  0
   20.2146    1.8560  -10.8637 O   0  0  0  0  0  0  0  0  0  0  0  0
   21.2678   -0.6082  -11.1906 C   0  0  2  0  0  0  0  0  0  0  0  0
   20.5238   -1.8570  -10.7622 C   0  0  0  0  0  0  0  0  0  0  0  0
   21.2930   -2.9692  -11.4193 C   0  0  0  0  0  0  0  0  0  0  0  0
   22.6255   -2.3939  -11.8356 C   0  0  0  0  0  0  0  0  0  0  0  0
   22.6909   -1.0642  -11.1124 C   0  0  2  0  0  0  0  0  0  0  0  0
   23.1387   -1.3217   -9.7735 N   0  0  0  0  0  0  0  0  0  0  0  0
   24.4506   -0.7977   -9.6826 C   0  0  0  0  0  0  0  0  0  0  0  0
   25.4028   -0.8711   -8.6883 C   0  0  0  0  0  0  0  0  0  0  0  0
   26.6519   -0.2575   -8.8363 C   0  0  0  0  0  0  0  0  0  0  0  0
   27.5604   -0.3561   -7.8294 F   0  0  0  0  0  0  0  0  0  0  0  0
   26.9185    0.4285  -10.0034 C   0  0  0  0  0  0  0  0  0  0  0  0
   25.9600    0.4967  -10.9926 C   0  0  0  0  0  0  0  0  0  0  0  0
   24.7053   -0.1182  -10.8468 C   0  0  0  0  0  0  0  0  0  0  0  0
   23.6081   -0.1805  -11.6920 O   0  0  0  0  0  0  0  0  0  0  0  0
  2  1  1  1
  2  3  2  0
  2  4  2  0
  5  2  1  1
  5  6  1  0
  6  7  1  1
  7  8  1  1
  8  9  1  1
  9 10  1  1
 10 11  1  0
 11 12  2  0
 12 13  1  0
 13 14  1  0
 13 15  2  0
 15 16  1  0
 16 17  2  0
 17 18  1  0
  9  5  1  0
 17 11  1  0
  9 18  1  0
M  END
$$$$
