_rank20
     RDKit          3D

 18 20  0  0  0  0  0  0  0  0999 V2000
   21.8397   -1.9352   -9.6789 C   0  0  0  0  0  0  0  0  0  0  0  0
   21.8366   -0.2180  -10.1232 S   0  0  2  0  0  6  0  0  0  0  0  0
   22.4403    0.6330   -9.0528 O   0  0  0  0  0  0  0  0  0  0  0  0
   20.4056    0.2013  -10.2724 O   0  0  0  0  0  0  0  0  0  0  0  0
   22.7179   -0.0336  -11.6458 C   0  0  2  0  0  0  0  0  0  0  0  0
   22.4970   -1.2092  -12.5764 C   0  0  0  0  0  0  0  0  0  0  0  0
   23.6595   -1.1306  -13.5266 C   0  0  0  0  0  0  0  0  0  0  0  0
   24.6820   -0.2178  -12.8935 C   0  0  0  0  0  0  0  0  0  0  0  0
   24.2028   -0.0689  -11.4640 C   0  0  2  0  0  0  0  0  0  0  0  0
   24.6646   -1.2135  -10.7316 N   0  0  0  0  0  0  0  0  0  0  0  0
   25.6689   -0.7460   -9.8502 C   0  0  0  0  0  0  0  0  0  0  0  0
   26.5378   -1.4110   -9.0114 C   0  0  0  0  0  0  0  0  0  0  0  0
   27.4587   -0.7121   -8.2225 C   0  0  0  0  0  0  0  0  0  0  0  0
   28.2965   -1.4095   -7.4098 F   0  0  0  0  0  0  0  0  0  0  0  0
   27.4840    0.6654   -8.2977 C   0  0  0  0  0  0  0  0  0  0  0  0
   26.6112    1.3221   -9.1395 C   0  0  0  0  0  0  0  0  0  0  0  0
   25.6857    0.6233   -9.9325 C   0  0  0  0  0  0  0  0  0  0  0  0
   24.7298    1.0644  -10.8346 O   0  0  0  0  0  0  0  0  0  0  0  0
  2  1  1  1
  2  3  2  0
  2  4  2  0
  5  2  1  1
  5  6  1  0
  6  7  1  1
  7  8  1  1
  8  9  1  1
  9 10  1  1
 10 11  1  0
 11 12  2  0
 12 13  1  0
 13 14  1  0
 13 15  2  0
 15 16  1  0
 16 17  2  0
 17 18  1  0
  9  5  1  0
 17 11  1  0
  9 18  1  0
M  END
$$$$
