_rank18
     RDKit          3D

 18 20  0  0  0  0  0  0  0  0999 V2000
   22.2674   -0.0794   -8.8292 C   0  0  0  0  0  0  0  0  0  0  0  0
   21.9744   -0.7701  -10.4364 S   0  0  2  0  0  6  0  0  0  0  0  0
   20.5159   -0.8238  -10.7597 O   0  0  0  0  0  0  0  0  0  0  0  0
   22.4785   -2.1811  -10.4140 O   0  0  0  0  0  0  0  0  0  0  0  0
   22.8481    0.2011  -11.6292 C   0  0  2  0  0  0  0  0  0  0  0  0
   22.9188   -0.4848  -12.9787 C   0  0  0  0  0  0  0  0  0  0  0  0
   24.0695    0.1995  -13.6627 C   0  0  0  0  0  0  0  0  0  0  0  0
   24.8482    0.9240  -12.5910 C   0  0  0  0  0  0  0  0  0  0  0  0
   24.2983    0.3606  -11.2966 C   0  0  2  0  0  0  0  0  0  0  0  0
   24.9701   -0.8825  -11.0460 N   0  0  0  0  0  0  0  0  0  0  0  0
   25.8184   -0.6619   -9.9343 C   0  0  0  0  0  0  0  0  0  0  0  0
   26.7803   -1.4516   -9.3411 C   0  0  0  0  0  0  0  0  0  0  0  0
   27.5004   -1.0015   -8.2287 C   0  0  0  0  0  0  0  0  0  0  0  0
   28.4399   -1.8146   -7.6762 F   0  0  0  0  0  0  0  0  0  0  0  0
   27.2305    0.2563   -7.7298 C   0  0  0  0  0  0  0  0  0  0  0  0
   26.2667    1.0392   -8.3295 C   0  0  0  0  0  0  0  0  0  0  0  0
   25.5422    0.5901   -9.4463 C   0  0  0  0  0  0  0  0  0  0  0  0
   24.5459    1.1926  -10.1990 O   0  0  0  0  0  0  0  0  0  0  0  0
  2  1  1  1
  2  3  2  0
  2  4  2  0
  5  2  1  1
  5  6  1  0
  6  7  1  1
  7  8  1  1
  8  9  1  1
  9 10  1  1
 10 11  1  0
 11 12  2  0
 12 13  1  0
 13 14  1  0
 13 15  2  0
 15 16  1  0
 16 17  2  0
 17 18  1  0
  9  5  1  0
 17 11  1  0
  9 18  1  0
M  END
$$$$
