_rank5
     RDKit          3D

 18 20  0  0  0  0  0  0  0  0999 V2000
   26.2268   -1.6257   -8.6143 C   0  0  0  0  0  0  0  0  0  0  0  0
   26.8047   -0.0445   -9.1726 S   0  0  2  0  0  6  0  0  0  0  0  0
   28.2058    0.2235   -8.7259 O   0  0  0  0  0  0  0  0  0  0  0  0
   25.9294    0.9973   -8.5446 O   0  0  0  0  0  0  0  0  0  0  0  0
   26.6869    0.0020  -10.9370 C   0  0  2  0  0  0  0  0  0  0  0  0
   27.1095    1.3442  -11.4997 C   0  0  0  0  0  0  0  0  0  0  0  0
   26.4828    1.3673  -12.8662 C   0  0  0  0  0  0  0  0  0  0  0  0
   25.4312    0.2840  -12.8843 C   0  0  0  0  0  0  0  0  0  0  0  0
   25.2765   -0.0988  -11.4266 C   0  0  2  0  0  0  0  0  0  0  0  0
   24.3892    0.8530  -10.8214 N   0  0  0  0  0  0  0  0  0  0  0  0
   23.1848    0.1605  -10.5491 C   0  0  0  0  0  0  0  0  0  0  0  0
   21.9571    0.5947  -10.0964 C   0  0  0  0  0  0  0  0  0  0  0  0
   20.8999   -0.3014   -9.9017 C   0  0  0  0  0  0  0  0  0  0  0  0
   19.7063    0.1716   -9.4538 F   0  0  0  0  0  0  0  0  0  0  0  0
   21.1068   -1.6385  -10.1721 C   0  0  0  0  0  0  0  0  0  0  0  0
   22.3381   -2.0637  -10.6246 C   0  0  0  0  0  0  0  0  0  0  0  0
   23.4012   -1.1666  -10.8210 C   0  0  0  0  0  0  0  0  0  0  0  0
   24.7015   -1.3636  -11.2600 O   0  0  0  0  0  0  0  0  0  0  0  0
  2  1  1  1
  2  3  2  0
  2  4  2  0
  5  2  1  1
  5  6  1  0
  6  7  1  1
  7  8  1  1
  8  9  1  1
  9 10  1  1
 10 11  1  0
 11 12  2  0
 12 13  1  0
 13 14  1  0
 13 15  2  0
 15 16  1  0
 16 17  2  0
 17 18  1  0
  9  5  1  0
 17 11  1  0
  9 18  1  0
M  END
$$$$
