_rank3
     RDKit          3D

 20 21  0  0  0  0  0  0  0  0999 V2000
   19.1683    2.0314   -8.7853 N   0  0  0  0  0  0  0  0  0  0  0  0
   19.7422    1.2111   -9.3493 C   0  0  0  0  0  0  0  0  0  0  0  0
   20.4650    0.1576  -10.0434 C   0  0  0  0  0  0  0  0  0  0  0  0
   19.8758   -1.0775  -10.2222 C   0  0  0  0  0  0  0  0  0  0  0  0
   20.5725   -2.0813  -10.8871 C   0  0  0  0  0  0  0  0  0  0  0  0
   19.9952   -3.2879  -11.0611 F   0  0  0  0  0  0  0  0  0  0  0  0
   21.8604   -1.8341  -11.3684 C   0  0  0  0  0  0  0  0  0  0  0  0
   22.4571   -0.6119  -11.1975 C   0  0  0  0  0  0  0  0  0  0  0  0
   23.7301   -0.3105  -11.6530 O   0  0  0  0  0  0  0  0  0  0  0  0
   24.7575   -0.2940  -10.7187 C   0  0  0  0  0  0  0  0  0  0  0  0
   24.5556   -0.5719   -9.3870 C   0  0  0  0  0  0  0  0  0  0  0  0
   25.6064   -0.5427   -8.4994 C   0  0  0  0  0  0  0  0  0  0  0  0
   26.8862   -0.2368   -8.9096 C   0  0  0  0  0  0  0  0  0  0  0  0
   27.9641   -0.2259   -7.8939 C   0  0  0  0  0  0  0  0  0  0  0  0
   27.7600    0.6877   -6.8887 O   0  0  0  0  0  0  0  0  0  0  0  0
   27.0758    0.0382  -10.2374 C   0  0  0  0  0  0  0  0  0  0  0  0
   26.0301    0.0140  -11.1479 C   0  0  0  0  0  0  0  0  0  0  0  0
   26.2960    0.3118  -12.5252 C   0  0  0  0  0  0  0  0  0  0  0  0
   26.4988    0.5685  -13.6389 N   0  0  0  0  0  0  0  0  0  0  0  0
   21.7374    0.3725  -10.5294 C   0  0  0  0  0  0  0  0  0  0  0  0
  1  2  3  0
  2  3  1  0
  3  4  2  0
  4  5  1  0
  5  6  1  0
  5  7  2  0
  7  8  1  0
  8  9  1  0
  9 10  1  0
 10 11  2  0
 11 12  1  0
 12 13  2  0
 13 14  1  0
 14 15  1  6
 13 16  1  0
 16 17  2  0
 17 18  1  0
 18 19  3  0
  8 20  2  0
 20  3  1  0
 17 10  1  0
M  END
$$$$
