_rank18
     RDKit          3D

 20 21  0  0  0  0  0  0  0  0999 V2000
   18.9970    1.7664   -8.1953 N   0  0  0  0  0  0  0  0  0  0  0  0
   19.3810    1.1555   -9.0895 C   0  0  0  0  0  0  0  0  0  0  0  0
   19.8495    0.3649  -10.2163 C   0  0  0  0  0  0  0  0  0  0  0  0
   19.1126    0.3263  -11.3825 C   0  0  0  0  0  0  0  0  0  0  0  0
   19.5661   -0.4319  -12.4571 C   0  0  0  0  0  0  0  0  0  0  0  0
   18.8447   -0.4685  -13.5963 F   0  0  0  0  0  0  0  0  0  0  0  0
   20.7609   -1.1476  -12.3497 C   0  0  0  0  0  0  0  0  0  0  0  0
   21.5023   -1.1178  -11.1971 C   0  0  0  0  0  0  0  0  0  0  0  0
   22.6931   -1.8067  -11.0342 O   0  0  0  0  0  0  0  0  0  0  0  0
   23.7779   -1.1005  -10.5311 C   0  0  0  0  0  0  0  0  0  0  0  0
   24.1274    0.1492  -10.9868 C   0  0  0  0  0  0  0  0  0  0  0  0
   25.2117    0.8092  -10.4562 C   0  0  0  0  0  0  0  0  0  0  0  0
   25.9786    0.2466   -9.4588 C   0  0  0  0  0  0  0  0  0  0  0  0
   27.1300    1.0200   -8.9392 C   0  0  0  0  0  0  0  0  0  0  0  0
   28.3052    0.7647   -9.6029 O   0  0  0  0  0  0  0  0  0  0  0  0
   25.6219   -0.9977   -9.0125 C   0  0  0  0  0  0  0  0  0  0  0  0
   24.5327   -1.6794   -9.5342 C   0  0  0  0  0  0  0  0  0  0  0  0
   24.2124   -2.9802   -9.0226 C   0  0  0  0  0  0  0  0  0  0  0  0
   23.9622   -4.0414   -8.6244 N   0  0  0  0  0  0  0  0  0  0  0  0
   21.0250   -0.3517  -10.1395 C   0  0  0  0  0  0  0  0  0  0  0  0
  1  2  3  0
  2  3  1  0
  3  4  2  0
  4  5  1  0
  5  6  1  0
  5  7  2  0
  7  8  1  0
  8  9  1  0
  9 10  1  0
 10 11  2  0
 11 12  1  0
 12 13  2  0
 13 14  1  0
 14 15  1  6
 13 16  1  0
 16 17  2  0
 17 18  1  0
 18 19  3  0
  8 20  2  0
 20  3  1  0
 17 10  1  0
M  END
$$$$
