_rank1
     RDKit          3D

 20 21  0  0  0  0  0  0  0  0999 V2000
   18.8230    2.0047   -8.9863 N   0  0  0  0  0  0  0  0  0  0  0  0
   19.4786    1.1706   -9.4276 C   0  0  0  0  0  0  0  0  0  0  0  0
   20.2980    0.1194  -10.0087 C   0  0  0  0  0  0  0  0  0  0  0  0
   19.7963   -1.1615  -10.1190 C   0  0  0  0  0  0  0  0  0  0  0  0
   20.5851   -2.1629  -10.6759 C   0  0  0  0  0  0  0  0  0  0  0  0
   20.0932   -3.4143  -10.7830 F   0  0  0  0  0  0  0  0  0  0  0  0
   21.8764   -1.8670  -11.1189 C   0  0  0  0  0  0  0  0  0  0  0  0
   22.3868   -0.5990  -11.0152 C   0  0  0  0  0  0  0  0  0  0  0  0
   23.6588   -0.2483  -11.4372 O   0  0  0  0  0  0  0  0  0  0  0  0
   24.6858   -0.3215  -10.5052 C   0  0  0  0  0  0  0  0  0  0  0  0
   24.4677   -0.6221   -9.1810 C   0  0  0  0  0  0  0  0  0  0  0  0
   25.5189   -0.6828   -8.2954 C   0  0  0  0  0  0  0  0  0  0  0  0
   26.8150   -0.4469   -8.7002 C   0  0  0  0  0  0  0  0  0  0  0  0
   27.8922   -0.5310   -7.6871 C   0  0  0  0  0  0  0  0  0  0  0  0
   27.8610    0.4900   -6.7688 O   0  0  0  0  0  0  0  0  0  0  0  0
   27.0207   -0.1486  -10.0206 C   0  0  0  0  0  0  0  0  0  0  0  0
   25.9750   -0.0825  -10.9290 C   0  0  0  0  0  0  0  0  0  0  0  0
   26.2581    0.2350  -12.2984 C   0  0  0  0  0  0  0  0  0  0  0  0
   26.4730    0.4792  -13.4127 N   0  0  0  0  0  0  0  0  0  0  0  0
   21.5761    0.3817  -10.4546 C   0  0  0  0  0  0  0  0  0  0  0  0
  1  2  3  0
  2  3  1  0
  3  4  2  0
  4  5  1  0
  5  6  1  0
  5  7  2  0
  7  8  1  0
  8  9  1  0
  9 10  1  0
 10 11  2  0
 11 12  1  0
 12 13  2  0
 13 14  1  0
 14 15  1  6
 13 16  1  0
 16 17  2  0
 17 18  1  0
 18 19  3  0
  8 20  2  0
 20  3  1  0
 17 10  1  0
M  END
$$$$
