_rank19
     RDKit          3D

 20 21  0  0  0  0  0  0  0  0999 V2000
   20.9330   -2.5161  -14.5433 N   0  0  0  0  0  0  0  0  0  0  0  0
   21.0969   -2.1982  -13.4513 C   0  0  0  0  0  0  0  0  0  0  0  0
   21.2976   -1.8191  -12.0621 C   0  0  0  0  0  0  0  0  0  0  0  0
   20.5562   -2.4274  -11.0696 C   0  0  0  0  0  0  0  0  0  0  0  0
   20.7528   -2.0604   -9.7422 C   0  0  0  0  0  0  0  0  0  0  0  0
   20.0273   -2.6559   -8.7735 F   0  0  0  0  0  0  0  0  0  0  0  0
   21.6965   -1.0813   -9.4227 C   0  0  0  0  0  0  0  0  0  0  0  0
   22.4395   -0.4694  -10.3987 C   0  0  0  0  0  0  0  0  0  0  0  0
   23.3881    0.5066  -10.1407 O   0  0  0  0  0  0  0  0  0  0  0  0
   24.6867    0.0858   -9.8848 C   0  0  0  0  0  0  0  0  0  0  0  0
   25.3937    0.4886   -8.7760 C   0  0  0  0  0  0  0  0  0  0  0  0
   26.6786    0.0439   -8.5663 C   0  0  0  0  0  0  0  0  0  0  0  0
   27.2968   -0.8127   -9.4516 C   0  0  0  0  0  0  0  0  0  0  0  0
   28.6817   -1.2467   -9.1560 C   0  0  0  0  0  0  0  0  0  0  0  0
   29.6074   -0.2383   -9.2696 O   0  0  0  0  0  0  0  0  0  0  0  0
   26.5839   -1.2073  -10.5519 C   0  0  0  0  0  0  0  0  0  0  0  0
   25.2879   -0.7705  -10.7814 C   0  0  0  0  0  0  0  0  0  0  0  0
   24.5959   -1.2214  -11.9537 C   0  0  0  0  0  0  0  0  0  0  0  0
   24.0236   -1.5706  -12.9013 N   0  0  0  0  0  0  0  0  0  0  0  0
   22.2219   -0.8560  -11.7165 C   0  0  0  0  0  0  0  0  0  0  0  0
  1  2  3  0
  2  3  1  0
  3  4  2  0
  4  5  1  0
  5  6  1  0
  5  7  2  0
  7  8  1  0
  8  9  1  0
  9 10  1  0
 10 11  2  0
 11 12  1  0
 12 13  2  0
 13 14  1  0
 14 15  1  6
 13 16  1  0
 16 17  2  0
 17 18  1  0
 18 19  3  0
  8 20  2  0
 20  3  1  0
 17 10  1  0
M  END
$$$$
