_rank20
     RDKit          3D

 20 21  0  0  0  0  0  0  0  0999 V2000
   29.6848   -2.1560  -11.4952 N   0  0  0  0  0  0  0  0  0  0  0  0
   28.5388   -2.0749  -11.4743 C   0  0  0  0  0  0  0  0  0  0  0  0
   27.0879   -1.9911  -11.4311 C   0  0  0  0  0  0  0  0  0  0  0  0
   26.3245   -2.9700  -12.0340 C   0  0  0  0  0  0  0  0  0  0  0  0
   24.9368   -2.8842  -11.9892 C   0  0  0  0  0  0  0  0  0  0  0  0
   24.1922   -3.8419  -12.5790 F   0  0  0  0  0  0  0  0  0  0  0  0
   24.3259   -1.8111  -11.3361 C   0  0  0  0  0  0  0  0  0  0  0  0
   25.0724   -0.8321  -10.7332 C   0  0  0  0  0  0  0  0  0  0  0  0
   24.5216    0.2535  -10.0722 O   0  0  0  0  0  0  0  0  0  0  0  0
   23.1385    0.2968   -9.9535 C   0  0  0  0  0  0  0  0  0  0  0  0
   22.3028    0.4188  -11.0389 C   0  0  0  0  0  0  0  0  0  0  0  0
   20.9379    0.4572  -10.8698 C   0  0  0  0  0  0  0  0  0  0  0  0
   20.3656    0.3756   -9.6187 C   0  0  0  0  0  0  0  0  0  0  0  0
   18.8886    0.4241   -9.5190 C   0  0  0  0  0  0  0  0  0  0  0  0
   18.4066   -0.0194   -8.3116 O   0  0  0  0  0  0  0  0  0  0  0  0
   21.2068    0.2544   -8.5452 C   0  0  0  0  0  0  0  0  0  0  0  0
   22.5849    0.2139   -8.6944 C   0  0  0  0  0  0  0  0  0  0  0  0
   23.4103    0.0857   -7.5288 C   0  0  0  0  0  0  0  0  0  0  0  0
   24.0764   -0.0380   -6.5862 N   0  0  0  0  0  0  0  0  0  0  0  0
   26.4571   -0.9436  -10.7938 C   0  0  0  0  0  0  0  0  0  0  0  0
  1  2  3  0
  2  3  1  0
  3  4  2  0
  4  5  1  0
  5  6  1  0
  5  7  2  0
  7  8  1  0
  8  9  1  0
  9 10  1  0
 10 11  2  0
 11 12  1  0
 12 13  2  0
 13 14  1  0
 14 15  1  6
 13 16  1  0
 16 17  2  0
 17 18  1  0
 18 19  3  0
  8 20  2  0
 20  3  1  0
 17 10  1  0
M  END
$$$$
