_rank5
     RDKit          3D

 20 21  0  0  0  0  0  0  0  0999 V2000
   18.4237    2.4306   -9.7770 N   0  0  0  0  0  0  0  0  0  0  0  0
   19.1661    1.5840  -10.0058 C   0  0  0  0  0  0  0  0  0  0  0  0
   20.0871    0.4958  -10.2914 C   0  0  0  0  0  0  0  0  0  0  0  0
   19.6751   -0.8121  -10.1362 C   0  0  0  0  0  0  0  0  0  0  0  0
   20.5609   -1.8490  -10.4111 C   0  0  0  0  0  0  0  0  0  0  0  0
   20.1565   -3.1267  -10.2588 F   0  0  0  0  0  0  0  0  0  0  0  0
   21.8583   -1.5610  -10.8413 C   0  0  0  0  0  0  0  0  0  0  0  0
   22.2803   -0.2664  -10.9996 C   0  0  0  0  0  0  0  0  0  0  0  0
   23.5536    0.0780  -11.4228 O   0  0  0  0  0  0  0  0  0  0  0  0
   24.5862   -0.0302  -10.5005 C   0  0  0  0  0  0  0  0  0  0  0  0
   24.3679   -0.2847   -9.1667 C   0  0  0  0  0  0  0  0  0  0  0  0
   25.4249   -0.3830   -8.2914 C   0  0  0  0  0  0  0  0  0  0  0  0
   26.7272   -0.2313   -8.7163 C   0  0  0  0  0  0  0  0  0  0  0  0
   27.8103   -0.3513   -7.7132 C   0  0  0  0  0  0  0  0  0  0  0  0
   29.0172    0.1382   -8.1496 O   0  0  0  0  0  0  0  0  0  0  0  0
   26.9330    0.0218  -10.0461 C   0  0  0  0  0  0  0  0  0  0  0  0
   25.8815    0.1245  -10.9443 C   0  0  0  0  0  0  0  0  0  0  0  0
   26.1652    0.3912  -12.3244 C   0  0  0  0  0  0  0  0  0  0  0  0
   26.4128    0.6145  -13.4363 N   0  0  0  0  0  0  0  0  0  0  0  0
   21.3737    0.7495  -10.7176 C   0  0  0  0  0  0  0  0  0  0  0  0
  1  2  3  0
  2  3  1  0
  3  4  2  0
  4  5  1  0
  5  6  1  0
  5  7  2  0
  7  8  1  0
  8  9  1  0
  9 10  1  0
 10 11  2  0
 11 12  1  0
 12 13  2  0
 13 14  1  0
 14 15  1  6
 13 16  1  0
 16 17  2  0
 17 18  1  0
 18 19  3  0
  8 20  2  0
 20  3  1  0
 17 10  1  0
M  END
$$$$
