_rank10
     RDKit          3D

 20 21  0  0  0  0  0  0  0  0999 V2000
   28.4242   -1.4936   -7.3021 N   0  0  0  0  0  0  0  0  0  0  0  0
   27.7300   -1.1357   -8.1450 C   0  0  0  0  0  0  0  0  0  0  0  0
   26.8408   -0.7055   -9.2119 C   0  0  0  0  0  0  0  0  0  0  0  0
   27.2316    0.3046  -10.0670 C   0  0  0  0  0  0  0  0  0  0  0  0
   26.3764    0.7118  -11.0859 C   0  0  0  0  0  0  0  0  0  0  0  0
   26.7599    1.6992  -11.9209 F   0  0  0  0  0  0  0  0  0  0  0  0
   25.1309    0.0976  -11.2370 C   0  0  0  0  0  0  0  0  0  0  0  0
   24.7305   -0.9069  -10.3944 C   0  0  0  0  0  0  0  0  0  0  0  0
   23.5084   -1.5511  -10.4968 O   0  0  0  0  0  0  0  0  0  0  0  0
   22.3642   -0.7893  -10.2986 C   0  0  0  0  0  0  0  0  0  0  0  0
   22.3382    0.3127   -9.4761 C   0  0  0  0  0  0  0  0  0  0  0  0
   21.1792    1.0356   -9.3121 C   0  0  0  0  0  0  0  0  0  0  0  0
   20.0145    0.6843   -9.9599 C   0  0  0  0  0  0  0  0  0  0  0  0
   18.8081    1.5128   -9.7318 C   0  0  0  0  0  0  0  0  0  0  0  0
   17.9736    1.0098   -8.7637 O   0  0  0  0  0  0  0  0  0  0  0  0
   20.0517   -0.4143  -10.7762 C   0  0  0  0  0  0  0  0  0  0  0  0
   21.2095   -1.1562  -10.9549 C   0  0  0  0  0  0  0  0  0  0  0  0
   21.1814   -2.2965  -11.8240 C   0  0  0  0  0  0  0  0  0  0  0  0
   21.1488   -3.2298  -12.5134 N   0  0  0  0  0  0  0  0  0  0  0  0
   25.6056   -1.2933   -9.3853 C   0  0  0  0  0  0  0  0  0  0  0  0
  1  2  3  0
  2  3  1  0
  3  4  2  0
  4  5  1  0
  5  6  1  0
  5  7  2  0
  7  8  1  0
  8  9  1  0
  9 10  1  0
 10 11  2  0
 11 12  1  0
 12 13  2  0
 13 14  1  0
 14 15  1  6
 13 16  1  0
 16 17  2  0
 17 18  1  0
 18 19  3  0
  8 20  2  0
 20  3  1  0
 17 10  1  0
M  END
$$$$
