_rank17
     RDKit          3D

 20 21  0  0  0  0  0  0  0  0999 V2000
   18.4038   -0.8919   -8.9074 N   0  0  0  0  0  0  0  0  0  0  0  0
   19.3659   -1.0286   -9.5206 C   0  0  0  0  0  0  0  0  0  0  0  0
   20.5968   -1.1963  -10.2761 C   0  0  0  0  0  0  0  0  0  0  0  0
   20.5518   -1.6967  -11.5614 C   0  0  0  0  0  0  0  0  0  0  0  0
   21.7329   -1.8548  -12.2791 C   0  0  0  0  0  0  0  0  0  0  0  0
   21.6871   -2.3440  -13.5353 F   0  0  0  0  0  0  0  0  0  0  0  0
   22.9540   -1.5072  -11.6964 C   0  0  0  0  0  0  0  0  0  0  0  0
   23.0127   -1.0091  -10.4206 C   0  0  0  0  0  0  0  0  0  0  0  0
   24.1936   -0.6482   -9.7928 O   0  0  0  0  0  0  0  0  0  0  0  0
   25.2465   -0.2339  -10.5981 C   0  0  0  0  0  0  0  0  0  0  0  0
   25.0870    0.6666  -11.6253 C   0  0  0  0  0  0  0  0  0  0  0  0
   26.1618    1.0462  -12.3957 C   0  0  0  0  0  0  0  0  0  0  0  0
   27.4241    0.5423  -12.1675 C   0  0  0  0  0  0  0  0  0  0  0  0
   28.5300    0.9999  -13.0401 C   0  0  0  0  0  0  0  0  0  0  0  0
   28.6038    0.3208  -14.2318 O   0  0  0  0  0  0  0  0  0  0  0  0
   27.5716   -0.3534  -11.1424 C   0  0  0  0  0  0  0  0  0  0  0  0
   26.5012   -0.7488  -10.3544 C   0  0  0  0  0  0  0  0  0  0  0  0
   26.7231   -1.6907   -9.2962 C   0  0  0  0  0  0  0  0  0  0  0  0
   26.9200   -2.4587   -8.4483 N   0  0  0  0  0  0  0  0  0  0  0  0
   21.8166   -0.8618   -9.7270 C   0  0  0  0  0  0  0  0  0  0  0  0
  1  2  3  0
  2  3  1  0
  3  4  2  0
  4  5  1  0
  5  6  1  0
  5  7  2  0
  7  8  1  0
  8  9  1  0
  9 10  1  0
 10 11  2  0
 11 12  1  0
 12 13  2  0
 13 14  1  0
 14 15  1  6
 13 16  1  0
 16 17  2  0
 17 18  1  0
 18 19  3  0
  8 20  2  0
 20  3  1  0
 17 10  1  0
M  END
$$$$
