_rank8
     RDKit          3D

 20 21  0  0  0  0  0  0  0  0999 V2000
   19.2139   -3.7949  -10.5587 N   0  0  0  0  0  0  0  0  0  0  0  0
   19.8069   -2.8107  -10.5502 C   0  0  0  0  0  0  0  0  0  0  0  0
   20.5400   -1.5551  -10.5547 C   0  0  0  0  0  0  0  0  0  0  0  0
   19.9335   -0.4034  -10.0960 C   0  0  0  0  0  0  0  0  0  0  0  0
   20.6401    0.7949  -10.1028 C   0  0  0  0  0  0  0  0  0  0  0  0
   20.0458    1.9195   -9.6541 F   0  0  0  0  0  0  0  0  0  0  0  0
   21.9553    0.8254  -10.5725 C   0  0  0  0  0  0  0  0  0  0  0  0
   22.5694   -0.3112  -11.0308 C   0  0  0  0  0  0  0  0  0  0  0  0
   23.8698   -0.3403  -11.5075 O   0  0  0  0  0  0  0  0  0  0  0  0
   24.8955   -0.2366  -10.5770 C   0  0  0  0  0  0  0  0  0  0  0  0
   24.6888   -0.3743   -9.2243 C   0  0  0  0  0  0  0  0  0  0  0  0
   25.7382   -0.2629   -8.3416 C   0  0  0  0  0  0  0  0  0  0  0  0
   27.0213   -0.0118   -8.7775 C   0  0  0  0  0  0  0  0  0  0  0  0
   28.0974    0.0944   -7.7654 C   0  0  0  0  0  0  0  0  0  0  0  0
   28.2424   -1.0368   -6.9998 O   0  0  0  0  0  0  0  0  0  0  0  0
   27.2158    0.1236  -10.1261 C   0  0  0  0  0  0  0  0  0  0  0  0
   26.1716    0.0148  -11.0321 C   0  0  0  0  0  0  0  0  0  0  0  0
   26.4426    0.1671  -12.4320 C   0  0  0  0  0  0  0  0  0  0  0  0
   26.6570    0.2711  -13.5681 N   0  0  0  0  0  0  0  0  0  0  0  0
   21.8393   -1.4944  -11.0124 C   0  0  0  0  0  0  0  0  0  0  0  0
  1  2  3  0
  2  3  1  0
  3  4  2  0
  4  5  1  0
  5  6  1  0
  5  7  2  0
  7  8  1  0
  8  9  1  0
  9 10  1  0
 10 11  2  0
 11 12  1  0
 12 13  2  0
 13 14  1  0
 14 15  1  6
 13 16  1  0
 16 17  2  0
 17 18  1  0
 18 19  3  0
  8 20  2  0
 20  3  1  0
 17 10  1  0
M  END
$$$$
