_rank2
     RDKit          3D

 20 21  0  0  0  0  0  0  0  0999 V2000
   18.5758    2.0523   -9.0974 N   0  0  0  0  0  0  0  0  0  0  0  0
   19.2724    1.2306   -9.4972 C   0  0  0  0  0  0  0  0  0  0  0  0
   20.1347    0.1814  -10.0165 C   0  0  0  0  0  0  0  0  0  0  0  0
   19.6748   -1.1182  -10.0790 C   0  0  0  0  0  0  0  0  0  0  0  0
   20.5045   -2.1176  -10.5769 C   0  0  0  0  0  0  0  0  0  0  0  0
   20.0534   -3.3874  -10.6372 F   0  0  0  0  0  0  0  0  0  0  0  0
   21.7944   -1.8008  -11.0094 C   0  0  0  0  0  0  0  0  0  0  0  0
   22.2636   -0.5140  -10.9529 C   0  0  0  0  0  0  0  0  0  0  0  0
   23.5320   -0.1422  -11.3672 O   0  0  0  0  0  0  0  0  0  0  0  0
   24.5705   -0.2833  -10.4560 C   0  0  0  0  0  0  0  0  0  0  0  0
   24.3660   -0.6537   -9.1474 C   0  0  0  0  0  0  0  0  0  0  0  0
   25.4283   -0.7802   -8.2822 C   0  0  0  0  0  0  0  0  0  0  0  0
   26.7224   -0.5425   -8.6925 C   0  0  0  0  0  0  0  0  0  0  0  0
   27.8120   -0.6999   -7.7017 C   0  0  0  0  0  0  0  0  0  0  0  0
   28.5179    0.4566   -7.4758 O   0  0  0  0  0  0  0  0  0  0  0  0
   26.9145   -0.1744   -9.9972 C   0  0  0  0  0  0  0  0  0  0  0  0
   25.8575   -0.0413  -10.8849 C   0  0  0  0  0  0  0  0  0  0  0  0
   26.1268    0.3475  -12.2387 C   0  0  0  0  0  0  0  0  0  0  0  0
   26.3644    0.6599  -13.3310 N   0  0  0  0  0  0  0  0  0  0  0  0
   21.4125    0.4642  -10.4507 C   0  0  0  0  0  0  0  0  0  0  0  0
  1  2  3  0
  2  3  1  0
  3  4  2  0
  4  5  1  0
  5  6  1  0
  5  7  2  0
  7  8  1  0
  8  9  1  0
  9 10  1  0
 10 11  2  0
 11 12  1  0
 12 13  2  0
 13 14  1  0
 14 15  1  6
 13 16  1  0
 16 17  2  0
 17 18  1  0
 18 19  3  0
  8 20  2  0
 20  3  1  0
 17 10  1  0
M  END
$$$$
