_rank15
     RDKit          3D

 20 21  0  0  0  0  0  0  0  0999 V2000
   28.1960    1.3368   -6.9939 N   0  0  0  0  0  0  0  0  0  0  0  0
   27.8056    0.6025   -7.7868 C   0  0  0  0  0  0  0  0  0  0  0  0
   27.3038   -0.3071   -8.8041 C   0  0  0  0  0  0  0  0  0  0  0  0
   27.8842   -1.5492   -8.9621 C   0  0  0  0  0  0  0  0  0  0  0  0
   27.3996   -2.4151   -9.9372 C   0  0  0  0  0  0  0  0  0  0  0  0
   27.9680   -3.6287  -10.0903 F   0  0  0  0  0  0  0  0  0  0  0  0
   26.3318   -2.0235  -10.7481 C   0  0  0  0  0  0  0  0  0  0  0  0
   25.7463   -0.7926  -10.6016 C   0  0  0  0  0  0  0  0  0  0  0  0
   24.6861   -0.3515  -11.3764 O   0  0  0  0  0  0  0  0  0  0  0  0
   23.4220   -0.8368  -11.0680 C   0  0  0  0  0  0  0  0  0  0  0  0
   22.9962   -2.0908  -11.4392 C   0  0  0  0  0  0  0  0  0  0  0  0
   21.7335   -2.5266  -11.1098 C   0  0  0  0  0  0  0  0  0  0  0  0
   20.8591   -1.7295  -10.4030 C   0  0  0  0  0  0  0  0  0  0  0  0
   19.5169   -2.2702  -10.0867 C   0  0  0  0  0  0  0  0  0  0  0  0
   19.4165   -2.7758   -8.8135 O   0  0  0  0  0  0  0  0  0  0  0  0
   21.2931   -0.4831  -10.0386 C   0  0  0  0  0  0  0  0  0  0  0  0
   22.5618   -0.0252  -10.3607 C   0  0  0  0  0  0  0  0  0  0  0  0
   22.9549    1.2910   -9.9490 C   0  0  0  0  0  0  0  0  0  0  0  0
   23.2726    2.3623   -9.6349 N   0  0  0  0  0  0  0  0  0  0  0  0
   26.2512    0.0520   -9.6192 C   0  0  0  0  0  0  0  0  0  0  0  0
  1  2  3  0
  2  3  1  0
  3  4  2  0
  4  5  1  0
  5  6  1  0
  5  7  2  0
  7  8  1  0
  8  9  1  0
  9 10  1  0
 10 11  2  0
 11 12  1  0
 12 13  2  0
 13 14  1  0
 14 15  1  6
 13 16  1  0
 16 17  2  0
 17 18  1  0
 18 19  3  0
  8 20  2  0
 20  3  1  0
 17 10  1  0
M  END
$$$$
