_rank7
     RDKit          3D

 20 21  0  0  0  0  0  0  0  0999 V2000
   20.1934   -4.3004  -10.9735 N   0  0  0  0  0  0  0  0  0  0  0  0
   20.4727   -3.1879  -10.9047 C   0  0  0  0  0  0  0  0  0  0  0  0
   20.8396   -1.7851  -10.7969 C   0  0  0  0  0  0  0  0  0  0  0  0
   19.9327   -0.8741  -10.2949 C   0  0  0  0  0  0  0  0  0  0  0  0
   20.2897    0.4667  -10.1942 C   0  0  0  0  0  0  0  0  0  0  0  0
   19.4021    1.3559   -9.7032 F   0  0  0  0  0  0  0  0  0  0  0  0
   21.5601    0.8818  -10.6007 C   0  0  0  0  0  0  0  0  0  0  0  0
   22.4702   -0.0128  -11.1012 C   0  0  0  0  0  0  0  0  0  0  0  0
   23.7425    0.3415  -11.5191 O   0  0  0  0  0  0  0  0  0  0  0  0
   24.7989    0.0640  -10.6614 C   0  0  0  0  0  0  0  0  0  0  0  0
   24.6251   -0.1553   -9.3148 C   0  0  0  0  0  0  0  0  0  0  0  0
   25.7041   -0.4268   -8.5055 C   0  0  0  0  0  0  0  0  0  0  0  0
   26.9849   -0.4881   -9.0109 C   0  0  0  0  0  0  0  0  0  0  0  0
   28.0941   -0.7856   -8.0755 C   0  0  0  0  0  0  0  0  0  0  0  0
   28.8338    0.3203   -7.7339 O   0  0  0  0  0  0  0  0  0  0  0  0
   27.1465   -0.2682  -10.3526 C   0  0  0  0  0  0  0  0  0  0  0  0
   26.0721    0.0069  -11.1852 C   0  0  0  0  0  0  0  0  0  0  0  0
   26.3094    0.2277  -12.5821 C   0  0  0  0  0  0  0  0  0  0  0  0
   26.5203    0.3999  -13.7104 N   0  0  0  0  0  0  0  0  0  0  0  0
   22.0862   -1.3462  -11.1903 C   0  0  0  0  0  0  0  0  0  0  0  0
  1  2  3  0
  2  3  1  0
  3  4  2  0
  4  5  1  0
  5  6  1  0
  5  7  2  0
  7  8  1  0
  8  9  1  0
  9 10  1  0
 10 11  2  0
 11 12  1  0
 12 13  2  0
 13 14  1  0
 14 15  1  6
 13 16  1  0
 16 17  2  0
 17 18  1  0
 18 19  3  0
  8 20  2  0
 20  3  1  0
 17 10  1  0
M  END
$$$$
