_rank15
     RDKit          3D

 19 20  0  0  0  0  0  0  0  0999 V2000
   18.1641   -2.3191  -10.6214 N   0  0  0  0  0  0  0  0  0  0  0  0
   19.1052   -1.6712  -10.5536 C   0  0  0  0  0  0  0  0  0  0  0  0
   20.3161   -0.8117  -10.4557 C   0  0  0  0  0  0  0  0  0  0  0  0
   20.2140    0.5018   -9.9975 C   0  0  0  0  0  0  0  0  0  0  0  0
   21.3790    1.2726   -9.9949 C   0  0  0  0  0  0  0  0  0  0  0  0
   21.3646    2.5335   -9.5725 F   0  0  0  0  0  0  0  0  0  0  0  0
   22.5913    0.7099  -10.4454 C   0  0  0  0  0  0  0  0  0  0  0  0
   22.6963   -0.5945  -10.8981 C   0  0  0  0  0  0  0  0  0  0  0  0
   23.8679   -1.1062  -11.3314 O   0  0  0  0  0  0  0  0  0  0  0  0
   25.0588   -0.8935  -10.5263 C   0  0  0  0  0  0  0  0  0  0  0  0
   24.9001   -1.3308   -9.2383 C   0  0  0  0  0  0  0  0  0  0  0  0
   26.0643   -1.1067   -8.4341 C   0  0  0  0  0  0  0  0  0  0  0  0
   27.1670   -0.5187   -8.9960 C   0  0  0  0  0  0  0  0  0  0  0  0
   28.3540   -0.2382   -8.1133 C   0  0  0  0  0  0  0  0  0  0  0  0
   28.2127    0.9815   -7.4865 O   0  0  0  0  0  0  0  0  0  0  0  0
   27.2544   -0.1108  -10.2959 C   0  0  0  0  0  0  0  0  0  0  0  0
   26.1022   -0.3257  -11.1068 C   0  0  0  0  0  0  0  0  0  0  0  0
   26.2232    0.2270  -12.9194 Br  0  0  0  0  0  0  0  0  0  0  0  0
   21.4773   -1.3042  -10.8640 C   0  0  0  0  0  0  0  0  0  0  0  0
  1  2  3  0
  2  3  1  0
  3  4  2  0
  4  5  1  0
  5  6  1  0
  5  7  2  0
  7  8  1  0
  8  9  1  0
  9 10  1  0
 10 11  2  0
 11 12  1  0
 12 13  2  0
 13 14  1  0
 14 15  1  6
 13 16  1  0
 16 17  2  0
 17 18  1  0
  8 19  2  0
 19  3  1  0
 17 10  1  0
M  END
$$$$
