_rank18
     RDKit          3D

 19 20  0  0  0  0  0  0  0  0999 V2000
   30.1672    0.0531   -8.7303 N   0  0  0  0  0  0  0  0  0  0  0  0
   29.0261   -0.0340   -8.7139 C   0  0  0  0  0  0  0  0  0  0  0  0
   27.5416   -0.1305   -8.6761 C   0  0  0  0  0  0  0  0  0  0  0  0
   26.8373    0.2661   -7.5393 C   0  0  0  0  0  0  0  0  0  0  0  0
   25.4522    0.0854   -7.5474 C   0  0  0  0  0  0  0  0  0  0  0  0
   24.7097    0.4385   -6.5021 F   0  0  0  0  0  0  0  0  0  0  0  0
   24.8268   -0.4789   -8.6786 C   0  0  0  0  0  0  0  0  0  0  0  0
   25.5228   -0.8708   -9.8096 C   0  0  0  0  0  0  0  0  0  0  0  0
   24.9003   -1.4158  -10.8762 O   0  0  0  0  0  0  0  0  0  0  0  0
   23.4666   -1.2247  -11.0161 C   0  0  0  0  0  0  0  0  0  0  0  0
   22.7489   -2.2451  -10.4515 C   0  0  0  0  0  0  0  0  0  0  0  0
   21.3348   -2.0722  -10.6026 C   0  0  0  0  0  0  0  0  0  0  0  0
   20.8582   -0.9635  -11.2516 C   0  0  0  0  0  0  0  0  0  0  0  0
   19.3713   -0.8374  -11.4511 C   0  0  0  0  0  0  0  0  0  0  0  0
   18.8519    0.1290  -10.6163 O   0  0  0  0  0  0  0  0  0  0  0  0
   21.6386    0.0201  -11.7876 C   0  0  0  0  0  0  0  0  0  0  0  0
   23.0477   -0.1406  -11.6464 C   0  0  0  0  0  0  0  0  0  0  0  0
   24.1373    1.2317  -12.3780 Br  0  0  0  0  0  0  0  0  0  0  0  0
   26.9137   -0.6505   -9.7215 C   0  0  0  0  0  0  0  0  0  0  0  0
  1  2  3  0
  2  3  1  0
  3  4  2  0
  4  5  1  0
  5  6  1  0
  5  7  2  0
  7  8  1  0
  8  9  1  0
  9 10  1  0
 10 11  2  0
 11 12  1  0
 12 13  2  0
 13 14  1  0
 14 15  1  6
 13 16  1  0
 16 17  2  0
 17 18  1  0
  8 19  2  0
 19  3  1  0
 17 10  1  0
M  END
$$$$
