_rank8
     RDKit          3D

 19 20  0  0  0  0  0  0  0  0999 V2000
   18.9879   -3.7696  -10.8754 N   0  0  0  0  0  0  0  0  0  0  0  0
   19.5910   -2.8036  -10.7604 C   0  0  0  0  0  0  0  0  0  0  0  0
   20.3626   -1.5380  -10.6284 C   0  0  0  0  0  0  0  0  0  0  0  0
   19.7589   -0.3948  -10.1047 C   0  0  0  0  0  0  0  0  0  0  0  0
   20.5213    0.7753  -10.0720 C   0  0  0  0  0  0  0  0  0  0  0  0
   20.0179    1.9068   -9.5873 F   0  0  0  0  0  0  0  0  0  0  0  0
   21.8451    0.7618  -10.5584 C   0  0  0  0  0  0  0  0  0  0  0  0
   22.4479   -0.3721  -11.0761 C   0  0  0  0  0  0  0  0  0  0  0  0
   23.7146   -0.3559  -11.5424 O   0  0  0  0  0  0  0  0  0  0  0  0
   24.8021   -0.1901  -10.5931 C   0  0  0  0  0  0  0  0  0  0  0  0
   24.4042   -0.4162   -9.3025 C   0  0  0  0  0  0  0  0  0  0  0  0
   25.4675   -0.2358   -8.3595 C   0  0  0  0  0  0  0  0  0  0  0  0
   26.7129    0.1165   -8.8092 C   0  0  0  0  0  0  0  0  0  0  0  0
   27.7963    0.3603   -7.7926 C   0  0  0  0  0  0  0  0  0  0  0  0
   28.6125   -0.7453   -7.6816 O   0  0  0  0  0  0  0  0  0  0  0  0
   27.0383    0.3214  -10.1192 C   0  0  0  0  0  0  0  0  0  0  0  0
   25.9890    0.1476  -11.0679 C   0  0  0  0  0  0  0  0  0  0  0  0
   26.4395    0.4177  -12.8927 Br  0  0  0  0  0  0  0  0  0  0  0  0
   21.6127   -1.5093  -11.0688 C   0  0  0  0  0  0  0  0  0  0  0  0
  1  2  3  0
  2  3  1  0
  3  4  2  0
  4  5  1  0
  5  6  1  0
  5  7  2  0
  7  8  1  0
  8  9  1  0
  9 10  1  0
 10 11  2  0
 11 12  1  0
 12 13  2  0
 13 14  1  0
 14 15  1  6
 13 16  1  0
 16 17  2  0
 17 18  1  0
  8 19  2  0
 19  3  1  0
 17 10  1  0
M  END
$$$$
