_rank17
     RDKit          3D

 19 20  0  0  0  0  0  0  0  0999 V2000
   28.4912    2.5383   -8.3183 N   0  0  0  0  0  0  0  0  0  0  0  0
   27.9300    1.5712   -8.5623 C   0  0  0  0  0  0  0  0  0  0  0  0
   27.1798    0.3246   -8.8754 C   0  0  0  0  0  0  0  0  0  0  0  0
   27.5399   -0.8842   -8.2797 C   0  0  0  0  0  0  0  0  0  0  0  0
   26.8364   -2.0262   -8.6700 C   0  0  0  0  0  0  0  0  0  0  0  0
   27.1194   -3.2161   -8.1480 F   0  0  0  0  0  0  0  0  0  0  0  0
   25.8095   -1.9210   -9.6311 C   0  0  0  0  0  0  0  0  0  0  0  0
   25.4480   -0.7221  -10.2219 C   0  0  0  0  0  0  0  0  0  0  0  0
   24.4660   -0.6505  -11.1455 O   0  0  0  0  0  0  0  0  0  0  0  0
   23.1190   -0.3313  -10.7037 C   0  0  0  0  0  0  0  0  0  0  0  0
   23.0808    0.0556   -9.3907 C   0  0  0  0  0  0  0  0  0  0  0  0
   21.7528    0.3536   -8.9435 C   0  0  0  0  0  0  0  0  0  0  0  0
   20.7062    0.2396   -9.8206 C   0  0  0  0  0  0  0  0  0  0  0  0
   19.3144    0.4985   -9.3084 C   0  0  0  0  0  0  0  0  0  0  0  0
   18.4492    0.7308  -10.3563 O   0  0  0  0  0  0  0  0  0  0  0  0
   20.8219   -0.1496  -11.1240 C   0  0  0  0  0  0  0  0  0  0  0  0
   22.1375   -0.4515  -11.5814 C   0  0  0  0  0  0  0  0  0  0  0  0
   22.3058   -0.9800  -13.3975 Br  0  0  0  0  0  0  0  0  0  0  0  0
   26.2030    0.3808   -9.7699 C   0  0  0  0  0  0  0  0  0  0  0  0
  1  2  3  0
  2  3  1  0
  3  4  2  0
  4  5  1  0
  5  6  1  0
  5  7  2  0
  7  8  1  0
  8  9  1  0
  9 10  1  0
 10 11  2  0
 11 12  1  0
 12 13  2  0
 13 14  1  0
 14 15  1  6
 13 16  1  0
 16 17  2  0
 17 18  1  0
  8 19  2  0
 19  3  1  0
 17 10  1  0
M  END
$$$$
