_rank19
     RDKit          3D

 19 20  0  0  0  0  0  0  0  0999 V2000
   29.1415   -0.5614  -11.6618 N   0  0  0  0  0  0  0  0  0  0  0  0
   28.1316   -0.4981  -11.1270 C   0  0  0  0  0  0  0  0  0  0  0  0
   26.8103   -0.4331  -10.4454 C   0  0  0  0  0  0  0  0  0  0  0  0
   26.7372   -0.2845   -9.0604 C   0  0  0  0  0  0  0  0  0  0  0  0
   25.4666   -0.2986   -8.4800 C   0  0  0  0  0  0  0  0  0  0  0  0
   25.3128   -0.1622   -7.1661 F   0  0  0  0  0  0  0  0  0  0  0  0
   24.3268   -0.4590   -9.2950 C   0  0  0  0  0  0  0  0  0  0  0  0
   24.3961   -0.6038  -10.6703 C   0  0  0  0  0  0  0  0  0  0  0  0
   23.2893   -0.7636  -11.4266 O   0  0  0  0  0  0  0  0  0  0  0  0
   22.0141   -0.3132  -10.8953 C   0  0  0  0  0  0  0  0  0  0  0  0
   22.0797    0.9603  -10.3964 C   0  0  0  0  0  0  0  0  0  0  0  0
   20.8300    1.4035   -9.8538 C   0  0  0  0  0  0  0  0  0  0  0  0
   19.7463    0.5658   -9.8895 C   0  0  0  0  0  0  0  0  0  0  0  0
   18.4623    1.0326   -9.2568 C   0  0  0  0  0  0  0  0  0  0  0  0
   18.2513    0.3857   -8.0578 O   0  0  0  0  0  0  0  0  0  0  0  0
   19.7548   -0.6962  -10.4101 C   0  0  0  0  0  0  0  0  0  0  0  0
   20.9925   -1.1506  -10.9513 C   0  0  0  0  0  0  0  0  0  0  0  0
   21.0063   -2.9002  -11.6892 Br  0  0  0  0  0  0  0  0  0  0  0  0
   25.7130   -0.5742  -11.1759 C   0  0  0  0  0  0  0  0  0  0  0  0
  1  2  3  0
  2  3  1  0
  3  4  2  0
  4  5  1  0
  5  6  1  0
  5  7  2  0
  7  8  1  0
  8  9  1  0
  9 10  1  0
 10 11  2  0
 11 12  1  0
 12 13  2  0
 13 14  1  0
 14 15  1  6
 13 16  1  0
 16 17  2  0
 17 18  1  0
  8 19  2  0
 19  3  1  0
 17 10  1  0
M  END
$$$$
