_rank16
     RDKit          3D

 19 20  0  0  0  0  0  0  0  0999 V2000
   26.9187   -0.1126   -7.0818 N   0  0  0  0  0  0  0  0  0  0  0  0
   26.7024   -0.1598   -8.2047 C   0  0  0  0  0  0  0  0  0  0  0  0
   26.4297   -0.1992   -9.6671 C   0  0  0  0  0  0  0  0  0  0  0  0
   27.4344    0.1183  -10.5811 C   0  0  0  0  0  0  0  0  0  0  0  0
   27.0905    0.1263  -11.9351 C   0  0  0  0  0  0  0  0  0  0  0  0
   27.9917    0.4184  -12.8684 F   0  0  0  0  0  0  0  0  0  0  0  0
   25.7697   -0.1798  -12.3234 C   0  0  0  0  0  0  0  0  0  0  0  0
   24.7711   -0.4982  -11.4186 C   0  0  0  0  0  0  0  0  0  0  0  0
   23.5122   -0.7798  -11.8166 O   0  0  0  0  0  0  0  0  0  0  0  0
   22.4043   -0.2947  -11.0112 C   0  0  0  0  0  0  0  0  0  0  0  0
   22.6608    0.9323  -10.4600 C   0  0  0  0  0  0  0  0  0  0  0  0
   21.5796    1.4078   -9.6492 C   0  0  0  0  0  0  0  0  0  0  0  0
   20.4519    0.6412   -9.5147 C   0  0  0  0  0  0  0  0  0  0  0  0
   19.3568    1.1356   -8.6076 C   0  0  0  0  0  0  0  0  0  0  0  0
   18.1551    0.5437   -8.9335 O   0  0  0  0  0  0  0  0  0  0  0  0
   20.2644   -0.5772  -10.1015 C   0  0  0  0  0  0  0  0  0  0  0  0
   21.3333   -1.0633  -10.9092 C   0  0  0  0  0  0  0  0  0  0  0  0
   21.0721   -2.7512  -11.7390 Br  0  0  0  0  0  0  0  0  0  0  0  0
   25.2018   -0.4879  -10.0750 C   0  0  0  0  0  0  0  0  0  0  0  0
  1  2  3  0
  2  3  1  0
  3  4  2  0
  4  5  1  0
  5  6  1  0
  5  7  2  0
  7  8  1  0
  8  9  1  0
  9 10  1  0
 10 11  2  0
 11 12  1  0
 12 13  2  0
 13 14  1  0
 14 15  1  6
 13 16  1  0
 16 17  2  0
 17 18  1  0
  8 19  2  0
 19  3  1  0
 17 10  1  0
M  END
$$$$
