_rank3
     RDKit          3D

 19 20  0  0  0  0  0  0  0  0999 V2000
   19.0091    1.6702   -8.7728 N   0  0  0  0  0  0  0  0  0  0  0  0
   19.5789    0.8896   -9.3859 C   0  0  0  0  0  0  0  0  0  0  0  0
   20.3390   -0.1120  -10.1819 C   0  0  0  0  0  0  0  0  0  0  0  0
   19.7998   -1.3749  -10.4270 C   0  0  0  0  0  0  0  0  0  0  0  0
   20.5956   -2.2878  -11.1232 C   0  0  0  0  0  0  0  0  0  0  0  0
   20.1535   -3.5119  -11.3968 F   0  0  0  0  0  0  0  0  0  0  0  0
   21.8875   -1.9107  -11.5451 C   0  0  0  0  0  0  0  0  0  0  0  0
   22.4242   -0.6570  -11.3058 C   0  0  0  0  0  0  0  0  0  0  0  0
   23.6672   -0.3243  -11.7140 O   0  0  0  0  0  0  0  0  0  0  0  0
   24.7278   -0.2534  -10.7233 C   0  0  0  0  0  0  0  0  0  0  0  0
   24.2760   -0.5200   -9.4584 C   0  0  0  0  0  0  0  0  0  0  0  0
   25.3134   -0.4332   -8.4742 C   0  0  0  0  0  0  0  0  0  0  0  0
   26.5881   -0.1188   -8.8663 C   0  0  0  0  0  0  0  0  0  0  0  0
   27.6458    0.0269   -7.8048 C   0  0  0  0  0  0  0  0  0  0  0  0
   28.6436   -0.9071   -7.9854 O   0  0  0  0  0  0  0  0  0  0  0  0
   26.9671    0.1309  -10.1538 C   0  0  0  0  0  0  0  0  0  0  0  0
   25.9443    0.0502  -11.1430 C   0  0  0  0  0  0  0  0  0  0  0  0
   26.4689    0.3830  -12.9374 Br  0  0  0  0  0  0  0  0  0  0  0  0
   21.5558    0.2044  -10.6024 C   0  0  0  0  0  0  0  0  0  0  0  0
  1  2  3  0
  2  3  1  0
  3  4  2  0
  4  5  1  0
  5  6  1  0
  5  7  2  0
  7  8  1  0
  8  9  1  0
  9 10  1  0
 10 11  2  0
 11 12  1  0
 12 13  2  0
 13 14  1  0
 14 15  1  6
 13 16  1  0
 16 17  2  0
 17 18  1  0
  8 19  2  0
 19  3  1  0
 17 10  1  0
M  END
$$$$
