_rank20
     RDKit          3D

 19 20  0  0  0  0  0  0  0  0999 V2000
   18.7881   -2.2842   -8.6009 N   0  0  0  0  0  0  0  0  0  0  0  0
   19.6484   -2.1232   -9.3383 C   0  0  0  0  0  0  0  0  0  0  0  0
   20.7580   -1.9305  -10.3112 C   0  0  0  0  0  0  0  0  0  0  0  0
   20.9184   -2.8100  -11.3819 C   0  0  0  0  0  0  0  0  0  0  0  0
   22.0201   -2.6095  -12.2170 C   0  0  0  0  0  0  0  0  0  0  0  0
   22.2425   -3.4047  -13.2595 F   0  0  0  0  0  0  0  0  0  0  0  0
   22.9124   -1.5490  -11.9556 C   0  0  0  0  0  0  0  0  0  0  0  0
   22.7541   -0.6727  -10.8953 C   0  0  0  0  0  0  0  0  0  0  0  0
   23.6278    0.3298  -10.6630 O   0  0  0  0  0  0  0  0  0  0  0  0
   24.9953   -0.0092  -10.3071 C   0  0  0  0  0  0  0  0  0  0  0  0
   25.7694   -0.2677  -11.4066 C   0  0  0  0  0  0  0  0  0  0  0  0
   27.1142   -0.6211  -11.0616 C   0  0  0  0  0  0  0  0  0  0  0  0
   27.4829   -0.6572   -9.7425 C   0  0  0  0  0  0  0  0  0  0  0  0
   28.8843   -1.0918   -9.4047 C   0  0  0  0  0  0  0  0  0  0  0  0
   28.8774   -2.3498   -8.8406 O   0  0  0  0  0  0  0  0  0  0  0  0
   26.6528   -0.3810   -8.6944 C   0  0  0  0  0  0  0  0  0  0  0  0
   25.3112   -0.0302   -9.0234 C   0  0  0  0  0  0  0  0  0  0  0  0
   24.1560    0.3685   -7.5700 Br  0  0  0  0  0  0  0  0  0  0  0  0
   21.6166   -0.9417  -10.1051 C   0  0  0  0  0  0  0  0  0  0  0  0
  1  2  3  0
  2  3  1  0
  3  4  2  0
  4  5  1  0
  5  6  1  0
  5  7  2  0
  7  8  1  0
  8  9  1  0
  9 10  1  0
 10 11  2  0
 11 12  1  0
 12 13  2  0
 13 14  1  0
 14 15  1  6
 13 16  1  0
 16 17  2  0
 17 18  1  0
  8 19  2  0
 19  3  1  0
 17 10  1  0
M  END
$$$$
