_rank6
     RDKit          3D

 19 20  0  0  0  0  0  0  0  0999 V2000
   18.2618    1.9492   -9.3357 N   0  0  0  0  0  0  0  0  0  0  0  0
   19.0306    1.1667   -9.6619 C   0  0  0  0  0  0  0  0  0  0  0  0
   20.0475    0.1642  -10.0809 C   0  0  0  0  0  0  0  0  0  0  0  0
   19.7570   -1.1992  -10.0306 C   0  0  0  0  0  0  0  0  0  0  0  0
   20.7801   -2.0861  -10.3742 C   0  0  0  0  0  0  0  0  0  0  0  0
   20.5823   -3.4010  -10.3519 F   0  0  0  0  0  0  0  0  0  0  0  0
   22.0432   -1.5848  -10.7517 C   0  0  0  0  0  0  0  0  0  0  0  0
   22.3336   -0.2321  -10.8054 C   0  0  0  0  0  0  0  0  0  0  0  0
   23.5540    0.2211  -11.1628 O   0  0  0  0  0  0  0  0  0  0  0  0
   24.6907   -0.1053  -10.3185 C   0  0  0  0  0  0  0  0  0  0  0  0
   24.3468   -0.1950   -8.9961 C   0  0  0  0  0  0  0  0  0  0  0  0
   25.4670   -0.4980   -8.1559 C   0  0  0  0  0  0  0  0  0  0  0  0
   26.7040   -0.6688   -8.7197 C   0  0  0  0  0  0  0  0  0  0  0  0
   27.8746   -0.9248   -7.8083 C   0  0  0  0  0  0  0  0  0  0  0  0
   29.0547   -0.9087   -8.5210 O   0  0  0  0  0  0  0  0  0  0  0  0
   26.9716   -0.5682  -10.0547 C   0  0  0  0  0  0  0  0  0  0  0  0
   25.8664   -0.2648  -10.9019 C   0  0  0  0  0  0  0  0  0  0  0  0
   26.2304   -0.1373  -12.7612 Br  0  0  0  0  0  0  0  0  0  0  0  0
   21.2467    0.5937  -10.4483 C   0  0  0  0  0  0  0  0  0  0  0  0
  1  2  3  0
  2  3  1  0
  3  4  2  0
  4  5  1  0
  5  6  1  0
  5  7  2  0
  7  8  1  0
  8  9  1  0
  9 10  1  0
 10 11  2  0
 11 12  1  0
 12 13  2  0
 13 14  1  0
 14 15  1  6
 13 16  1  0
 16 17  2  0
 17 18  1  0
  8 19  2  0
 19  3  1  0
 17 10  1  0
M  END
$$$$
