_rank13
     RDKit          3D

 19 20  0  0  0  0  0  0  0  0999 V2000
   18.6409   -3.4813  -10.8535 N   0  0  0  0  0  0  0  0  0  0  0  0
   19.4200   -2.6466  -10.7755 C   0  0  0  0  0  0  0  0  0  0  0  0
   20.4301   -1.5609  -10.6506 C   0  0  0  0  0  0  0  0  0  0  0  0
   20.0461   -0.2831  -10.2437 C   0  0  0  0  0  0  0  0  0  0  0  0
   21.0339    0.7042  -10.2132 C   0  0  0  0  0  0  0  0  0  0  0  0
   20.7480    1.9470   -9.8361 F   0  0  0  0  0  0  0  0  0  0  0  0
   22.3557    0.3833  -10.5862 C   0  0  0  0  0  0  0  0  0  0  0  0
   22.7404   -0.8848  -10.9877 C   0  0  0  0  0  0  0  0  0  0  0  0
   24.0114   -1.1634  -11.3472 O   0  0  0  0  0  0  0  0  0  0  0  0
   25.0942   -0.6472  -10.5271 C   0  0  0  0  0  0  0  0  0  0  0  0
   24.9714   -1.0142   -9.2136 C   0  0  0  0  0  0  0  0  0  0  0  0
   26.0259   -0.4926   -8.3960 C   0  0  0  0  0  0  0  0  0  0  0  0
   27.0068    0.2725   -8.9704 C   0  0  0  0  0  0  0  0  0  0  0  0
   28.0682    0.8595   -8.0786 C   0  0  0  0  0  0  0  0  0  0  0  0
   28.7206   -0.1366   -7.3835 O   0  0  0  0  0  0  0  0  0  0  0  0
   27.0665    0.5949  -10.2957 C   0  0  0  0  0  0  0  0  0  0  0  0
   26.0221    0.0843  -11.1202 C   0  0  0  0  0  0  0  0  0  0  0  0
   26.1080    0.5182  -12.9669 Br  0  0  0  0  0  0  0  0  0  0  0  0
   21.6857   -1.8221  -10.9864 C   0  0  0  0  0  0  0  0  0  0  0  0
  1  2  3  0
  2  3  1  0
  3  4  2  0
  4  5  1  0
  5  6  1  0
  5  7  2  0
  7  8  1  0
  8  9  1  0
  9 10  1  0
 10 11  2  0
 11 12  1  0
 12 13  2  0
 13 14  1  0
 14 15  1  6
 13 16  1  0
 16 17  2  0
 17 18  1  0
  8 19  2  0
 19  3  1  0
 17 10  1  0
M  END
$$$$
