_rank11
     RDKit          3D

 19 20  0  0  0  0  0  0  0  0999 V2000
   19.0829   -3.7399  -10.8219 N   0  0  0  0  0  0  0  0  0  0  0  0
   19.7168   -2.7900  -10.7462 C   0  0  0  0  0  0  0  0  0  0  0  0
   20.5583   -1.5657  -10.6594 C   0  0  0  0  0  0  0  0  0  0  0  0
   20.0154   -0.3677  -10.1947 C   0  0  0  0  0  0  0  0  0  0  0  0
   20.8432    0.7575  -10.2031 C   0  0  0  0  0  0  0  0  0  0  0  0
   20.4004    1.9363   -9.7755 F   0  0  0  0  0  0  0  0  0  0  0  0
   22.1694    0.6470  -10.6704 C   0  0  0  0  0  0  0  0  0  0  0  0
   22.7118   -0.5413  -11.1296 C   0  0  0  0  0  0  0  0  0  0  0  0
   23.9825   -0.6179  -11.5790 O   0  0  0  0  0  0  0  0  0  0  0  0
   25.0664   -0.3797  -10.6410 C   0  0  0  0  0  0  0  0  0  0  0  0
   24.7125   -0.6760   -9.3518 C   0  0  0  0  0  0  0  0  0  0  0  0
   25.7709   -0.4253   -8.4195 C   0  0  0  0  0  0  0  0  0  0  0  0
   26.9715    0.0510   -8.8768 C   0  0  0  0  0  0  0  0  0  0  0  0
   28.0454    0.3646   -7.8694 C   0  0  0  0  0  0  0  0  0  0  0  0
   28.4880   -0.7899   -7.2595 O   0  0  0  0  0  0  0  0  0  0  0  0
   27.2548    0.3201  -10.1850 C   0  0  0  0  0  0  0  0  0  0  0  0
   26.2096    0.0774  -11.1230 C   0  0  0  0  0  0  0  0  0  0  0  0
   26.6028    0.4368  -12.9457 Br  0  0  0  0  0  0  0  0  0  0  0  0
   21.8128   -1.6277  -11.0836 C   0  0  0  0  0  0  0  0  0  0  0  0
  1  2  3  0
  2  3  1  0
  3  4  2  0
  4  5  1  0
  5  6  1  0
  5  7  2  0
  7  8  1  0
  8  9  1  0
  9 10  1  0
 10 11  2  0
 11 12  1  0
 12 13  2  0
 13 14  1  0
 14 15  1  6
 13 16  1  0
 16 17  2  0
 17 18  1  0
  8 19  2  0
 19  3  1  0
 17 10  1  0
M  END
$$$$
