_rank9
     RDKit          3D

 19 20  0  0  0  0  0  0  0  0999 V2000
   20.0405   -4.4637  -10.3110 N   0  0  0  0  0  0  0  0  0  0  0  0
   20.3310   -3.3626  -10.4260 C   0  0  0  0  0  0  0  0  0  0  0  0
   20.7299   -1.9358  -10.5665 C   0  0  0  0  0  0  0  0  0  0  0  0
   19.8016   -0.9185  -10.3453 C   0  0  0  0  0  0  0  0  0  0  0  0
   20.2261    0.3949  -10.5602 C   0  0  0  0  0  0  0  0  0  0  0  0
   19.4010    1.4206  -10.3708 F   0  0  0  0  0  0  0  0  0  0  0  0
   21.5483    0.6425  -10.9839 C   0  0  0  0  0  0  0  0  0  0  0  0
   22.4728   -0.3651  -11.2014 C   0  0  0  0  0  0  0  0  0  0  0  0
   23.7306   -0.1010  -11.6146 O   0  0  0  0  0  0  0  0  0  0  0  0
   24.8024   -0.1208  -10.6337 C   0  0  0  0  0  0  0  0  0  0  0  0
   24.3447   -0.3790   -9.3692 C   0  0  0  0  0  0  0  0  0  0  0  0
   25.3943   -0.3812   -8.3941 C   0  0  0  0  0  0  0  0  0  0  0  0
   26.6840   -0.1475   -8.7936 C   0  0  0  0  0  0  0  0  0  0  0  0
   27.7587   -0.0938   -7.7405 C   0  0  0  0  0  0  0  0  0  0  0  0
   28.5754   -1.2011   -7.8265 O   0  0  0  0  0  0  0  0  0  0  0  0
   27.0678    0.0991  -10.0803 C   0  0  0  0  0  0  0  0  0  0  0  0
   26.0330    0.1065  -11.0603 C   0  0  0  0  0  0  0  0  0  0  0  0
   26.5631    0.4354  -12.8538 Br  0  0  0  0  0  0  0  0  0  0  0  0
   21.9660   -1.6591  -10.9578 C   0  0  0  0  0  0  0  0  0  0  0  0
  1  2  3  0
  2  3  1  0
  3  4  2  0
  4  5  1  0
  5  6  1  0
  5  7  2  0
  7  8  1  0
  8  9  1  0
  9 10  1  0
 10 11  2  0
 11 12  1  0
 12 13  2  0
 13 14  1  0
 14 15  1  6
 13 16  1  0
 16 17  2  0
 17 18  1  0
  8 19  2  0
 19  3  1  0
 17 10  1  0
M  END
$$$$
