_rank10
     RDKit          3D

 19 20  0  0  0  0  0  0  0  0999 V2000
   18.9892   -3.8098  -11.1361 N   0  0  0  0  0  0  0  0  0  0  0  0
   19.6527   -2.8873  -10.9994 C   0  0  0  0  0  0  0  0  0  0  0  0
   20.5101   -1.6810  -10.8434 C   0  0  0  0  0  0  0  0  0  0  0  0
   19.9681   -0.4868  -10.3681 C   0  0  0  0  0  0  0  0  0  0  0  0
   20.8142    0.6233  -10.3105 C   0  0  0  0  0  0  0  0  0  0  0  0
   20.3734    1.7977   -9.8687 F   0  0  0  0  0  0  0  0  0  0  0  0
   22.1567    0.5022  -10.7253 C   0  0  0  0  0  0  0  0  0  0  0  0
   22.6982   -0.6826  -11.1948 C   0  0  0  0  0  0  0  0  0  0  0  0
   23.9851   -0.7694  -11.5930 O   0  0  0  0  0  0  0  0  0  0  0  0
   25.0308   -0.4356  -10.6409 C   0  0  0  0  0  0  0  0  0  0  0  0
   24.6557   -0.6866   -9.3480 C   0  0  0  0  0  0  0  0  0  0  0  0
   25.6755   -0.3418   -8.4027 C   0  0  0  0  0  0  0  0  0  0  0  0
   26.8649    0.1686   -8.8525 C   0  0  0  0  0  0  0  0  0  0  0  0
   27.8952    0.5805   -7.8349 C   0  0  0  0  0  0  0  0  0  0  0  0
   29.1664    0.3268   -8.3042 O   0  0  0  0  0  0  0  0  0  0  0  0
   27.1712    0.3883  -10.1647 C   0  0  0  0  0  0  0  0  0  0  0  0
   26.1644    0.0517  -11.1157 C   0  0  0  0  0  0  0  0  0  0  0  0
   26.5904    0.3422  -12.9433 Br  0  0  0  0  0  0  0  0  0  0  0  0
   21.7800   -1.7537  -11.2167 C   0  0  0  0  0  0  0  0  0  0  0  0
  1  2  3  0
  2  3  1  0
  3  4  2  0
  4  5  1  0
  5  6  1  0
  5  7  2  0
  7  8  1  0
  8  9  1  0
  9 10  1  0
 10 11  2  0
 11 12  1  0
 12 13  2  0
 13 14  1  0
 14 15  1  6
 13 16  1  0
 16 17  2  0
 17 18  1  0
  8 19  2  0
 19  3  1  0
 17 10  1  0
M  END
$$$$
