_rank8
     RDKit          3D

 19 21  0  0  0  0  0  0  0  0999 V2000
   25.4413    0.1388   -8.1115 C   0  0  0  0  0  0  0  0  0  0  0  0
   27.0335   -0.1308   -8.8107 S   0  0  1  0  0  6  0  0  0  0  0  0
   27.7053    1.2269   -8.9361 O   0  0  0  0  0  0  0  0  0  0  0  0
   27.8874   -0.9939   -7.9450 O   0  0  0  0  0  0  0  0  0  0  0  0
   26.9109   -0.7836  -10.4772 C   0  0  2  0  0  0  0  0  0  0  0  0
   27.4990    0.1285  -11.4831 C   0  0  0  0  0  0  0  0  0  0  0  0
   26.5318    1.1337  -12.0551 C   0  0  0  0  0  0  0  0  0  0  0  0
   25.4206    0.3259  -12.7090 C   0  0  0  0  0  0  0  0  0  0  0  0
   24.6940   -0.3774  -11.6051 C   0  0  1  0  0  0  0  0  0  0  0  0
   25.5206   -1.2430  -10.7491 C   0  0  0  0  0  0  0  0  0  0  0  0
   23.9116    0.5934  -10.8383 N   0  0  0  0  0  0  0  0  0  0  0  0
   22.6412   -0.0107  -10.5891 C   0  0  0  0  0  0  0  0  0  0  0  0
   21.6121    0.2619   -9.7124 C   0  0  0  0  0  0  0  0  0  0  0  0
   20.4737   -0.4911   -9.6767 C   0  0  0  0  0  0  0  0  0  0  0  0
   20.3593   -1.5529  -10.5466 C   0  0  0  0  0  0  0  0  0  0  0  0
   19.2570   -2.3501  -10.5723 F   0  0  0  0  0  0  0  0  0  0  0  0
   21.3619   -1.8491  -11.4278 C   0  0  0  0  0  0  0  0  0  0  0  0
   22.5079   -1.0816  -11.4555 C   0  0  0  0  0  0  0  0  0  0  0  0
   23.6442   -1.1472  -12.2149 O   0  0  0  0  0  0  0  0  0  0  0  0
  2  1  1  1
  2  3  2  0
  2  4  2  0
  5  2  1  1
  6  5  1  1
  7  6  1  6
  8  7  1  6
  8  9  1  0
 10  9  1  6
  9 11  1  1
 11 12  1  0
 12 13  2  0
 13 14  1  0
 14 15  2  0
 15 16  1  0
 15 17  1  0
 17 18  2  0
 18 19  1  0
 10  5  1  0
 18 12  1  0
  9 19  1  0
M  END
$$$$
