_rank17
     RDKit          3D

 19 21  0  0  0  0  0  0  0  0999 V2000
   27.4087    0.2362  -13.3540 C   0  0  0  0  0  0  0  0  0  0  0  0
   26.7608   -0.4710  -11.8787 S   0  0  1  0  0  6  0  0  0  0  0  0
   25.4091   -1.0738  -12.2250 O   0  0  0  0  0  0  0  0  0  0  0  0
   27.6325   -1.5582  -11.3481 O   0  0  0  0  0  0  0  0  0  0  0  0
   26.4447    0.7858  -10.6383 C   0  0  2  0  0  0  0  0  0  0  0  0
   27.2032    0.5475   -9.3902 C   0  0  0  0  0  0  0  0  0  0  0  0
   26.4837   -0.3044   -8.3756 C   0  0  0  0  0  0  0  0  0  0  0  0
   25.1972    0.4352   -8.0394 C   0  0  0  0  0  0  0  0  0  0  0  0
   24.3556    0.4178   -9.2773 C   0  0  1  0  0  0  0  0  0  0  0  0
   24.9788    0.9947  -10.4791 C   0  0  0  0  0  0  0  0  0  0  0  0
   23.8430   -0.9350   -9.5013 N   0  0  0  0  0  0  0  0  0  0  0  0
   22.4734   -0.7952   -9.8831 C   0  0  0  0  0  0  0  0  0  0  0  0
   21.5605   -1.6381  -10.4815 C   0  0  0  0  0  0  0  0  0  0  0  0
   20.2786   -1.2472  -10.7433 C   0  0  0  0  0  0  0  0  0  0  0  0
   19.8957    0.0294  -10.3956 C   0  0  0  0  0  0  0  0  0  0  0  0
   18.6371    0.4931  -10.6233 F   0  0  0  0  0  0  0  0  0  0  0  0
   20.7773    0.8888   -9.8011 C   0  0  0  0  0  0  0  0  0  0  0  0
   22.0700    0.4836   -9.5410 C   0  0  0  0  0  0  0  0  0  0  0  0
   23.1388    1.1188   -8.9696 O   0  0  0  0  0  0  0  0  0  0  0  0
  2  1  1  6
  2  3  2  0
  2  4  2  0
  5  2  1  6
  6  5  1  1
  7  6  1  6
  8  7  1  6
  8  9  1  0
 10  9  1  6
  9 11  1  6
 11 12  1  0
 12 13  2  0
 13 14  1  0
 14 15  2  0
 15 16  1  0
 15 17  1  0
 17 18  2  0
 18 19  1  0
 10  5  1  0
 18 12  1  0
  9 19  1  0
M  END
$$$$
