_rank20
     RDKit          3D

 19 21  0  0  0  0  0  0  0  0999 V2000
   19.6082   -0.1441   -8.8057 C   0  0  0  0  0  0  0  0  0  0  0  0
   20.9710   -0.9855   -9.5346 S   0  0  1  0  0  6  0  0  0  0  0  0
   22.0427   -1.1169   -8.4648 O   0  0  0  0  0  0  0  0  0  0  0  0
   20.6032   -2.3552   -9.9951 O   0  0  0  0  0  0  0  0  0  0  0  0
   21.7013   -0.0186  -10.8575 C   0  0  2  0  0  0  0  0  0  0  0  0
   21.5071   -0.6441  -12.1845 C   0  0  0  0  0  0  0  0  0  0  0  0
   22.6018   -1.5976  -12.5911 C   0  0  0  0  0  0  0  0  0  0  0  0
   23.8862   -0.7822  -12.6114 C   0  0  0  0  0  0  0  0  0  0  0  0
   24.1707   -0.3933  -11.1940 C   0  0  1  0  0  0  0  0  0  0  0  0
   23.1014    0.3524  -10.5115 C   0  0  0  0  0  0  0  0  0  0  0  0
   24.6063   -1.5711  -10.4418 N   0  0  0  0  0  0  0  0  0  0  0  0
   25.7071   -1.1549   -9.6319 C   0  0  0  0  0  0  0  0  0  0  0  0
   26.3423   -1.6988   -8.5352 C   0  0  0  0  0  0  0  0  0  0  0  0
   27.4000   -1.0810   -7.9319 C   0  0  0  0  0  0  0  0  0  0  0  0
   27.8384    0.1212   -8.4417 C   0  0  0  0  0  0  0  0  0  0  0  0
   28.8854    0.7979   -7.8969 F   0  0  0  0  0  0  0  0  0  0  0  0
   27.2299    0.6863   -9.5278 C   0  0  0  0  0  0  0  0  0  0  0  0
   26.1619    0.0536  -10.1297 C   0  0  0  0  0  0  0  0  0  0  0  0
   25.3813    0.3818  -11.2045 O   0  0  0  0  0  0  0  0  0  0  0  0
  2  1  1  1
  2  3  2  0
  2  4  2  0
  5  2  1  1
  6  5  1  1
  7  6  1  6
  8  7  1  6
  8  9  1  0
 10  9  1  6
  9 11  1  1
 11 12  1  0
 12 13  2  0
 13 14  1  0
 14 15  2  0
 15 16  1  0
 15 17  1  0
 17 18  2  0
 18 19  1  0
 10  5  1  0
 18 12  1  0
  9 19  1  0
M  END
$$$$
