_rank12
     RDKit          3D

 19 21  0  0  0  0  0  0  0  0999 V2000
   26.1634    1.4554  -13.3832 C   0  0  0  0  0  0  0  0  0  0  0  0
   26.8833    0.4942  -12.0970 S   0  0  1  0  0  6  0  0  0  0  0  0
   26.2258   -0.8756  -12.1374 O   0  0  0  0  0  0  0  0  0  0  0  0
   28.3509    0.3113  -12.2877 O   0  0  0  0  0  0  0  0  0  0  0  0
   26.5083    1.1811  -10.4827 C   0  0  2  0  0  0  0  0  0  0  0  0
   27.3152    0.5629   -9.4073 C   0  0  0  0  0  0  0  0  0  0  0  0
   26.6875   -0.6546   -8.7776 C   0  0  0  0  0  0  0  0  0  0  0  0
   25.3594   -0.1925   -8.1966 C   0  0  0  0  0  0  0  0  0  0  0  0
   24.4888    0.1784   -9.3567 C   0  0  1  0  0  0  0  0  0  0  0  0
   25.0358    1.2019  -10.2616 C   0  0  0  0  0  0  0  0  0  0  0  0
   24.0716   -1.0342  -10.0625 N   0  0  0  0  0  0  0  0  0  0  0  0
   22.6858   -0.8721  -10.3697 C   0  0  0  0  0  0  0  0  0  0  0  0
   21.8219   -1.5063  -11.2378 C   0  0  0  0  0  0  0  0  0  0  0  0
   20.5083   -1.1483  -11.3411 C   0  0  0  0  0  0  0  0  0  0  0  0
   20.0416   -0.1217  -10.5502 C   0  0  0  0  0  0  0  0  0  0  0  0
   18.7467    0.2932  -10.5950 F   0  0  0  0  0  0  0  0  0  0  0  0
   20.8729    0.5269   -9.6798 C   0  0  0  0  0  0  0  0  0  0  0  0
   22.1985    0.1571   -9.5834 C   0  0  0  0  0  0  0  0  0  0  0  0
   23.2323    0.6208   -8.8162 O   0  0  0  0  0  0  0  0  0  0  0  0
  2  1  1  6
  2  3  2  0
  2  4  2  0
  5  2  1  6
  6  5  1  1
  7  6  1  6
  8  7  1  6
  8  9  1  0
 10  9  1  6
  9 11  1  6
 11 12  1  0
 12 13  2  0
 13 14  1  0
 14 15  2  0
 15 16  1  0
 15 17  1  0
 17 18  2  0
 18 19  1  0
 10  5  1  0
 18 12  1  0
  9 19  1  0
M  END
$$$$
