_rank9
     RDKit          3D

 19 21  0  0  0  0  0  0  0  0999 V2000
   28.0695    0.0676   -8.0331 C   0  0  0  0  0  0  0  0  0  0  0  0
   27.0629   -0.9736   -9.0327 S   0  0  1  0  0  6  0  0  0  0  0  0
   27.8782   -2.2164   -9.3507 O   0  0  0  0  0  0  0  0  0  0  0  0
   25.8214   -1.4003   -8.3255 O   0  0  0  0  0  0  0  0  0  0  0  0
   26.6920   -0.2021  -10.6093 C   0  0  2  0  0  0  0  0  0  0  0  0
   26.8771    1.2656  -10.5745 C   0  0  0  0  0  0  0  0  0  0  0  0
   25.6486    2.0402  -10.1701 C   0  0  0  0  0  0  0  0  0  0  0  0
   24.5781    1.7004  -11.1966 C   0  0  0  0  0  0  0  0  0  0  0  0
   24.2453    0.2532  -11.0074 C   0  0  1  0  0  0  0  0  0  0  0  0
   25.3773   -0.6804  -11.1198 C   0  0  0  0  0  0  0  0  0  0  0  0
   23.4945    0.0827   -9.7625 N   0  0  0  0  0  0  0  0  0  0  0  0
   22.4345   -0.8321  -10.0463 C   0  0  0  0  0  0  0  0  0  0  0  0
   21.5921   -1.5883   -9.2586 C   0  0  0  0  0  0  0  0  0  0  0  0
   20.6377   -2.4038   -9.7957 C   0  0  0  0  0  0  0  0  0  0  0  0
   20.5208   -2.4661  -11.1667 C   0  0  0  0  0  0  0  0  0  0  0  0
   19.5952   -3.2543  -11.7776 F   0  0  0  0  0  0  0  0  0  0  0  0
   21.3408   -1.7288  -11.9750 C   0  0  0  0  0  0  0  0  0  0  0  0
   22.3018   -0.9080  -11.4217 C   0  0  0  0  0  0  0  0  0  0  0  0
   23.2369   -0.0778  -11.9771 O   0  0  0  0  0  0  0  0  0  0  0  0
  2  1  1  1
  2  3  2  0
  2  4  2  0
  5  2  1  1
  6  5  1  1
  7  6  1  6
  8  7  1  6
  8  9  1  0
 10  9  1  6
  9 11  1  1
 11 12  1  0
 12 13  2  0
 13 14  1  0
 14 15  2  0
 15 16  1  0
 15 17  1  0
 17 18  2  0
 18 19  1  0
 10  5  1  0
 18 12  1  0
  9 19  1  0
M  END
$$$$
