_rank16
     RDKit          3D

 19 21  0  0  0  0  0  0  0  0999 V2000
   25.8365    2.2445   -8.8216 C   0  0  0  0  0  0  0  0  0  0  0  0
   26.9574    0.9840   -9.3229 S   0  0  1  0  0  6  0  0  0  0  0  0
   26.9313    0.9373  -10.8420 O   0  0  0  0  0  0  0  0  0  0  0  0
   28.3551    1.2718   -8.8905 O   0  0  0  0  0  0  0  0  0  0  0  0
   26.4132   -0.6315   -8.7638 C   0  0  2  0  0  0  0  0  0  0  0  0
   27.1292   -1.7329   -9.4449 C   0  0  0  0  0  0  0  0  0  0  0  0
   26.4753   -2.2100  -10.7167 C   0  0  0  0  0  0  0  0  0  0  0  0
   25.0867   -2.6913  -10.3229 C   0  0  0  0  0  0  0  0  0  0  0  0
   24.3215   -1.4820   -9.8834 C   0  0  1  0  0  0  0  0  0  0  0  0
   24.9262   -0.7100   -8.7862 C   0  0  0  0  0  0  0  0  0  0  0  0
   24.0041   -0.6541  -11.0481 N   0  0  0  0  0  0  0  0  0  0  0  0
   22.6502   -0.2265  -10.8890 C   0  0  0  0  0  0  0  0  0  0  0  0
   21.8891    0.7643  -11.4731 C   0  0  0  0  0  0  0  0  0  0  0  0
   20.5827    0.9684  -11.1325 C   0  0  0  0  0  0  0  0  0  0  0  0
   20.0172    0.1549  -10.1755 C   0  0  0  0  0  0  0  0  0  0  0  0
   18.7223    0.2950   -9.7821 F   0  0  0  0  0  0  0  0  0  0  0  0
   20.7452   -0.8362   -9.5779 C   0  0  0  0  0  0  0  0  0  0  0  0
   22.0644   -1.0337   -9.9296 C   0  0  0  0  0  0  0  0  0  0  0  0
   23.0085   -1.9285   -9.5050 O   0  0  0  0  0  0  0  0  0  0  0  0
  2  1  1  1
  2  3  2  0
  2  4  2  0
  5  2  1  6
  6  5  1  1
  7  6  1  6
  8  7  1  6
  8  9  1  0
 10  9  1  6
  9 11  1  6
 11 12  1  0
 12 13  2  0
 13 14  1  0
 14 15  2  0
 15 16  1  0
 15 17  1  0
 17 18  2  0
 18 19  1  0
 10  5  1  0
 18 12  1  0
  9 19  1  0
M  END
$$$$
