_rank2
     RDKit          3D

 19 21  0  0  0  0  0  0  0  0999 V2000
   28.3475    0.2442   -8.2525 C   0  0  0  0  0  0  0  0  0  0  0  0
   26.6991   -0.2430   -8.6292 S   0  0  1  0  0  6  0  0  0  0  0  0
   26.3726   -1.4405   -7.7519 O   0  0  0  0  0  0  0  0  0  0  0  0
   25.7134    0.8351   -8.3301 O   0  0  0  0  0  0  0  0  0  0  0  0
   26.5597   -0.8127  -10.3246 C   0  0  2  0  0  0  0  0  0  0  0  0
   27.1807    0.1254  -11.2859 C   0  0  0  0  0  0  0  0  0  0  0  0
   26.2491    1.1879  -11.8114 C   0  0  0  0  0  0  0  0  0  0  0  0
   25.1135    0.4491  -12.5039 C   0  0  0  0  0  0  0  0  0  0  0  0
   24.3608   -0.2805  -11.4352 C   0  0  1  0  0  0  0  0  0  0  0  0
   25.1558   -1.2123  -10.6196 C   0  0  0  0  0  0  0  0  0  0  0  0
   23.6089    0.6790  -10.6247 N   0  0  0  0  0  0  0  0  0  0  0  0
   22.3184    0.1065  -10.4059 C   0  0  0  0  0  0  0  0  0  0  0  0
   21.2964    0.3719   -9.5187 C   0  0  0  0  0  0  0  0  0  0  0  0
   20.1335   -0.3436   -9.5198 C   0  0  0  0  0  0  0  0  0  0  0  0
   19.9864   -1.3591  -10.4387 C   0  0  0  0  0  0  0  0  0  0  0  0
   18.8583   -2.1170  -10.5032 F   0  0  0  0  0  0  0  0  0  0  0  0
   20.9811   -1.6470  -11.3315 C   0  0  0  0  0  0  0  0  0  0  0  0
   22.1521   -0.9177  -11.3216 C   0  0  0  0  0  0  0  0  0  0  0  0
   23.2877   -0.9854  -12.0818 O   0  0  0  0  0  0  0  0  0  0  0  0
  2  1  1  1
  2  3  2  0
  2  4  2  0
  5  2  1  1
  6  5  1  1
  7  6  1  6
  8  7  1  6
  8  9  1  0
 10  9  1  6
  9 11  1  1
 11 12  1  0
 12 13  2  0
 13 14  1  0
 14 15  2  0
 15 16  1  0
 15 17  1  0
 17 18  2  0
 18 19  1  0
 10  5  1  0
 18 12  1  0
  9 19  1  0
M  END
$$$$
