_rank19
     RDKit          3D

 19 21  0  0  0  0  0  0  0  0999 V2000
   25.3398   -3.3481  -10.1303 C   0  0  0  0  0  0  0  0  0  0  0  0
   26.6417   -2.2884   -9.6026 S   0  0  1  0  0  6  0  0  0  0  0  0
   26.3768   -1.9414   -8.1466 O   0  0  0  0  0  0  0  0  0  0  0  0
   27.9743   -2.9519   -9.6875 O   0  0  0  0  0  0  0  0  0  0  0  0
   26.6201   -0.7344  -10.4987 C   0  0  2  0  0  0  0  0  0  0  0  0
   27.4191    0.3138   -9.8259 C   0  0  0  0  0  0  0  0  0  0  0  0
   26.6483    1.1440   -8.8312 C   0  0  0  0  0  0  0  0  0  0  0  0
   25.5237    1.8051   -9.6143 C   0  0  0  0  0  0  0  0  0  0  0  0
   24.6029    0.7090  -10.0520 C   0  0  1  0  0  0  0  0  0  0  0  0
   25.2215   -0.3618  -10.8496 C   0  0  0  0  0  0  0  0  0  0  0  0
   23.8666    0.1975   -8.8949 N   0  0  0  0  0  0  0  0  0  0  0  0
   22.5128    0.0225   -9.3164 C   0  0  0  0  0  0  0  0  0  0  0  0
   21.4364   -0.6690   -8.8014 C   0  0  0  0  0  0  0  0  0  0  0  0
   20.2177   -0.6731   -9.4171 C   0  0  0  0  0  0  0  0  0  0  0  0
   20.0691    0.0380  -10.5874 C   0  0  0  0  0  0  0  0  0  0  0  0
   18.8873    0.0832  -11.2599 F   0  0  0  0  0  0  0  0  0  0  0  0
   21.1169    0.7338  -11.1234 C   0  0  0  0  0  0  0  0  0  0  0  0
   22.3440    0.7311  -10.4931 C   0  0  0  0  0  0  0  0  0  0  0  0
   23.5387    1.3247  -10.7971 O   0  0  0  0  0  0  0  0  0  0  0  0
  2  1  1  6
  2  3  2  0
  2  4  2  0
  5  2  1  1
  6  5  1  1
  7  6  1  6
  8  7  1  6
  8  9  1  0
 10  9  1  6
  9 11  1  1
 11 12  1  0
 12 13  2  0
 13 14  1  0
 14 15  2  0
 15 16  1  0
 15 17  1  0
 17 18  2  0
 18 19  1  0
 10  5  1  0
 18 12  1  0
  9 19  1  0
M  END
$$$$
