_rank6
     RDKit          3D

 19 21  0  0  0  0  0  0  0  0999 V2000
   28.2628    0.0428   -8.1653 C   0  0  0  0  0  0  0  0  0  0  0  0
   26.5816   -0.1380   -8.6524 S   0  0  1  0  0  6  0  0  0  0  0  0
   25.9234   -1.0787   -7.6562 O   0  0  0  0  0  0  0  0  0  0  0  0
   25.8464    1.1590   -8.6228 O   0  0  0  0  0  0  0  0  0  0  0  0
   26.4498   -0.9347  -10.2544 C   0  0  2  0  0  0  0  0  0  0  0  0
   27.1123   -0.1574  -11.3252 C   0  0  0  0  0  0  0  0  0  0  0  0
   26.2207    0.8467  -12.0105 C   0  0  0  0  0  0  0  0  0  0  0  0
   25.0736    0.0501  -12.6145 C   0  0  0  0  0  0  0  0  0  0  0  0
   24.2840   -0.5022  -11.4687 C   0  0  1  0  0  0  0  0  0  0  0  0
   25.0389   -1.3326  -10.5169 C   0  0  0  0  0  0  0  0  0  0  0  0
   23.5495    0.5813  -10.8136 N   0  0  0  0  0  0  0  0  0  0  0  0
   22.2394    0.0808  -10.5412 C   0  0  0  0  0  0  0  0  0  0  0  0
   21.2131    0.4956   -9.7186 C   0  0  0  0  0  0  0  0  0  0  0  0
   20.0294   -0.1807   -9.6417 C   0  0  0  0  0  0  0  0  0  0  0  0
   19.8654   -1.3101  -10.4130 C   0  0  0  0  0  0  0  0  0  0  0  0
   18.7162   -2.0382  -10.3923 F   0  0  0  0  0  0  0  0  0  0  0  0
   20.8639   -1.7471  -11.2385 C   0  0  0  0  0  0  0  0  0  0  0  0
   22.0558   -1.0561  -11.3085 C   0  0  0  0  0  0  0  0  0  0  0  0
   23.1998   -1.2606  -12.0308 O   0  0  0  0  0  0  0  0  0  0  0  0
  2  1  1  1
  2  3  2  0
  2  4  2  0
  5  2  1  1
  6  5  1  1
  7  6  1  6
  8  7  1  6
  8  9  1  0
 10  9  1  6
  9 11  1  1
 11 12  1  0
 12 13  2  0
 13 14  1  0
 14 15  2  0
 15 16  1  0
 15 17  1  0
 17 18  2  0
 18 19  1  0
 10  5  1  0
 18 12  1  0
  9 19  1  0
M  END
$$$$
