_rank4
     RDKit          3D

 19 21  0  0  0  0  0  0  0  0999 V2000
   26.5271    1.4073   -8.7160 C   0  0  0  0  0  0  0  0  0  0  0  0
   26.6385   -0.3439   -8.5842 S   0  0  1  0  0  6  0  0  0  0  0  0
   28.0555   -0.6724   -8.1433 O   0  0  0  0  0  0  0  0  0  0  0  0
   25.6961   -0.8909   -7.5661 O   0  0  0  0  0  0  0  0  0  0  0  0
   26.4161   -1.1326  -10.1801 C   0  0  2  0  0  0  0  0  0  0  0  0
   27.1350   -0.4243  -11.2624 C   0  0  0  0  0  0  0  0  0  0  0  0
   26.3315    0.6541  -11.9437 C   0  0  0  0  0  0  0  0  0  0  0  0
   25.1095   -0.0367  -12.5307 C   0  0  0  0  0  0  0  0  0  0  0  0
   24.2856   -0.5089  -11.3734 C   0  0  1  0  0  0  0  0  0  0  0  0
   24.9718   -1.4006  -10.4250 C   0  0  0  0  0  0  0  0  0  0  0  0
   23.6610    0.6405  -10.7165 N   0  0  0  0  0  0  0  0  0  0  0  0
   22.3136    0.2636  -10.4271 C   0  0  0  0  0  0  0  0  0  0  0  0
   21.3390    0.7746   -9.5959 C   0  0  0  0  0  0  0  0  0  0  0  0
   20.0993    0.2101   -9.5024 C   0  0  0  0  0  0  0  0  0  0  0  0
   19.8237   -0.9030  -10.2654 C   0  0  0  0  0  0  0  0  0  0  0  0
   18.6129   -1.5225  -10.2282 F   0  0  0  0  0  0  0  0  0  0  0  0
   20.7685   -1.4336  -11.0992 C   0  0  0  0  0  0  0  0  0  0  0  0
   22.0179   -0.8553  -11.1859 C   0  0  0  0  0  0  0  0  0  0  0  0
   23.1302   -1.1672  -11.9194 O   0  0  0  0  0  0  0  0  0  0  0  0
  2  1  1  6
  2  3  2  0
  2  4  2  0
  5  2  1  1
  6  5  1  1
  7  6  1  6
  8  7  1  6
  8  9  1  0
 10  9  1  6
  9 11  1  1
 11 12  1  0
 12 13  2  0
 13 14  1  0
 14 15  2  0
 15 16  1  0
 15 17  1  0
 17 18  2  0
 18 19  1  0
 10  5  1  0
 18 12  1  0
  9 19  1  0
M  END
$$$$
