_rank13
     RDKit          3D

 19 21  0  0  0  0  0  0  0  0999 V2000
   26.1003    3.3664   -9.6024 C   0  0  0  0  0  0  0  0  0  0  0  0
   27.1094    1.9595   -9.9164 S   0  0  1  0  0  6  0  0  0  0  0  0
   26.7198    1.4229  -11.2841 O   0  0  0  0  0  0  0  0  0  0  0  0
   28.5596    2.3053   -9.9484 O   0  0  0  0  0  0  0  0  0  0  0  0
   26.7711    0.6414   -8.7474 C   0  0  2  0  0  0  0  0  0  0  0  0
   27.7849   -0.4350   -8.8047 C   0  0  0  0  0  0  0  0  0  0  0  0
   27.4699   -1.5375   -9.7835 C   0  0  0  0  0  0  0  0  0  0  0  0
   26.1419   -2.1314   -9.3377 C   0  0  0  0  0  0  0  0  0  0  0  0
   25.1053   -1.0720   -9.5479 C   0  0  1  0  0  0  0  0  0  0  0  0
   25.3517    0.2053   -8.8600 C   0  0  0  0  0  0  0  0  0  0  0  0
   24.8620   -0.9034  -10.9815 N   0  0  0  0  0  0  0  0  0  0  0  0
   23.4475   -0.7881  -11.1454 C   0  0  0  0  0  0  0  0  0  0  0  0
   22.6404   -0.3430  -12.1713 C   0  0  0  0  0  0  0  0  0  0  0  0
   21.2788   -0.3374  -12.0700 C   0  0  0  0  0  0  0  0  0  0  0  0
   20.7036   -0.7919  -10.9039 C   0  0  0  0  0  0  0  0  0  0  0  0
   19.3550   -0.8179  -10.7261 F   0  0  0  0  0  0  0  0  0  0  0  0
   21.4763   -1.2396   -9.8686 C   0  0  0  0  0  0  0  0  0  0  0  0
   22.8512   -1.2409   -9.9815 C   0  0  0  0  0  0  0  0  0  0  0  0
   23.8470   -1.6237   -9.1248 O   0  0  0  0  0  0  0  0  0  0  0  0
  2  1  1  1
  2  3  2  0
  2  4  2  0
  5  2  1  6
  6  5  1  1
  7  6  1  6
  8  7  1  6
  8  9  1  0
 10  9  1  6
  9 11  1  6
 11 12  1  0
 12 13  2  0
 13 14  1  0
 14 15  2  0
 15 16  1  0
 15 17  1  0
 17 18  2  0
 18 19  1  0
 10  5  1  0
 18 12  1  0
  9 19  1  0
M  END
$$$$
