_rank5
     RDKit          3D

 19 21  0  0  0  0  0  0  0  0999 V2000
   27.8601   -1.7819   -7.9841 C   0  0  0  0  0  0  0  0  0  0  0  0
   27.1847   -0.3821   -8.8092 S   0  0  1  0  0  6  0  0  0  0  0  0
   25.7671   -0.1965   -8.2928 O   0  0  0  0  0  0  0  0  0  0  0  0
   27.9517    0.8635   -8.5200 O   0  0  0  0  0  0  0  0  0  0  0  0
   27.0399   -0.6731  -10.5734 C   0  0  2  0  0  0  0  0  0  0  0  0
   27.5297    0.4709  -11.3741 C   0  0  0  0  0  0  0  0  0  0  0  0
   26.4794    1.5041  -11.6939 C   0  0  0  0  0  0  0  0  0  0  0  0
   25.3974    0.7775  -12.4790 C   0  0  0  0  0  0  0  0  0  0  0  0
   24.7600   -0.1935  -11.5346 C   0  0  1  0  0  0  0  0  0  0  0  0
   25.6722   -1.1609  -10.9042 C   0  0  0  0  0  0  0  0  0  0  0  0
   23.9475    0.5350  -10.5589 N   0  0  0  0  0  0  0  0  0  0  0  0
   22.7285   -0.1961  -10.4147 C   0  0  0  0  0  0  0  0  0  0  0  0
   21.7187   -0.1888   -9.4755 C   0  0  0  0  0  0  0  0  0  0  0  0
   20.6326   -1.0104   -9.5749 C   0  0  0  0  0  0  0  0  0  0  0  0
   20.5526   -1.8686  -10.6493 C   0  0  0  0  0  0  0  0  0  0  0  0
   19.5030   -2.7176  -10.8189 F   0  0  0  0  0  0  0  0  0  0  0  0
   21.5373   -1.8997  -11.5973 C   0  0  0  0  0  0  0  0  0  0  0  0
   22.6304   -1.0652  -11.4871 C   0  0  0  0  0  0  0  0  0  0  0  0
   23.7385   -0.8880  -12.2700 O   0  0  0  0  0  0  0  0  0  0  0  0
  2  1  1  1
  2  3  2  0
  2  4  2  0
  5  2  1  1
  6  5  1  1
  7  6  1  6
  8  7  1  6
  8  9  1  0
 10  9  1  6
  9 11  1  1
 11 12  1  0
 12 13  2  0
 13 14  1  0
 14 15  2  0
 15 16  1  0
 15 17  1  0
 17 18  2  0
 18 19  1  0
 10  5  1  0
 18 12  1  0
  9 19  1  0
M  END
$$$$
