_rank10
     RDKit          3D

 19 21  0  0  0  0  0  0  0  0999 V2000
   25.4310    1.0517   -8.5209 C   0  0  0  0  0  0  0  0  0  0  0  0
   26.7725   -0.0668   -8.7350 S   0  0  1  0  0  6  0  0  0  0  0  0
   28.0349    0.7675   -8.8789 O   0  0  0  0  0  0  0  0  0  0  0  0
   26.9431   -0.9695   -7.5606 O   0  0  0  0  0  0  0  0  0  0  0  0
   26.6096   -0.9943  -10.2620 C   0  0  2  0  0  0  0  0  0  0  0  0
   27.3029   -0.3401  -11.3939 C   0  0  0  0  0  0  0  0  0  0  0  0
   26.4521    0.6348  -12.1675 C   0  0  0  0  0  0  0  0  0  0  0  0
   25.2745   -0.1654  -12.7041 C   0  0  0  0  0  0  0  0  0  0  0  0
   24.4632   -0.5840  -11.5176 C   0  0  1  0  0  0  0  0  0  0  0  0
   25.1842   -1.3575  -10.4941 C   0  0  0  0  0  0  0  0  0  0  0  0
   23.7721    0.5807  -10.9622 N   0  0  0  0  0  0  0  0  0  0  0  0
   22.4431    0.1581  -10.6521 C   0  0  0  0  0  0  0  0  0  0  0  0
   21.4338    0.6833   -9.8727 C   0  0  0  0  0  0  0  0  0  0  0  0
   20.2242    0.0636   -9.7417 C   0  0  0  0  0  0  0  0  0  0  0  0
   20.0156   -1.1214  -10.4122 C   0  0  0  0  0  0  0  0  0  0  0  0
   18.8384   -1.7988  -10.3325 F   0  0  0  0  0  0  0  0  0  0  0  0
   20.9962   -1.6678  -11.1927 C   0  0  0  0  0  0  0  0  0  0  0  0
   22.2147   -1.0333  -11.3181 C   0  0  0  0  0  0  0  0  0  0  0  0
   23.3499   -1.3451  -12.0155 O   0  0  0  0  0  0  0  0  0  0  0  0
  2  1  1  1
  2  3  2  0
  2  4  2  0
  5  2  1  1
  6  5  1  1
  7  6  1  6
  8  7  1  6
  8  9  1  0
 10  9  1  6
  9 11  1  1
 11 12  1  0
 12 13  2  0
 13 14  1  0
 14 15  2  0
 15 16  1  0
 15 17  1  0
 17 18  2  0
 18 19  1  0
 10  5  1  0
 18 12  1  0
  9 19  1  0
M  END
$$$$
