_rank13
     RDKit          3D

 15 15  0  0  0  0  0  0  0  0999 V2000
   20.8329   -0.8197   -8.9085 C   0  0  0  0  0  0  0  0  0  0  0  0
   21.7048   -0.8875  -10.4602 S   0  0  1  0  0  6  0  0  0  0  0  0
   21.5655   -2.2874  -10.9842 O   0  0  0  0  0  0  0  0  0  0  0  0
   21.0907    0.1051  -11.3767 O   0  0  0  0  0  0  0  0  0  0  0  0
   23.3800   -0.5163  -10.1262 C   0  0  0  0  0  0  0  0  0  0  0  0
   23.7976   -0.3646   -8.8258 C   0  0  0  0  0  0  0  0  0  0  0  0
   25.1158   -0.0694   -8.4995 C   0  0  0  0  0  0  0  0  0  0  0  0
   25.5354    0.0817   -7.2202 F   0  0  0  0  0  0  0  0  0  0  0  0
   26.0000    0.0671   -9.5469 C   0  0  0  0  0  0  0  0  0  0  0  0
   25.6045   -0.0809  -10.8677 C   0  0  0  0  0  0  0  0  0  0  0  0
   26.6398    0.0872  -11.9214 C   0  0  2  0  0  0  0  0  0  0  0  0
   26.0638   -0.1681  -13.2098 N   0  0  0  0  0  0  0  0  0  0  0  0
   27.7446   -0.8777  -11.7267 C   0  0  0  0  0  0  0  0  0  0  0  0
   28.6028   -1.6445  -11.5804 N   0  0  0  0  0  0  0  0  0  0  0  0
   24.3070   -0.3697  -11.1510 C   0  0  0  0  0  0  0  0  0  0  0  0
  1  2  1  6
  2  3  2  0
  2  4  2  0
  2  5  1  1
  5  6  2  0
  6  7  1  0
  7  8  1  0
  7  9  2  0
  9 10  1  0
 10 11  1  0
 11 12  1  6
 11 13  1  0
 13 14  3  0
 10 15  2  0
 15  5  1  0
M  END
$$$$
