_rank17
     RDKit          3D

 15 15  0  0  0  0  0  0  0  0999 V2000
   27.3263    1.4863   -8.2676 C   0  0  0  0  0  0  0  0  0  0  0  0
   27.0209   -0.2233   -8.6632 S   0  0  1  0  0  6  0  0  0  0  0  0
   28.1737   -0.6955   -9.5011 O   0  0  0  0  0  0  0  0  0  0  0  0
   26.9219   -0.9795   -7.3901 O   0  0  0  0  0  0  0  0  0  0  0  0
   25.5297   -0.2828   -9.5736 C   0  0  0  0  0  0  0  0  0  0  0  0
   24.3289   -0.3529   -8.9093 C   0  0  0  0  0  0  0  0  0  0  0  0
   23.1123   -0.4026   -9.5792 C   0  0  0  0  0  0  0  0  0  0  0  0
   21.9242   -0.4718   -8.9317 F   0  0  0  0  0  0  0  0  0  0  0  0
   23.1589   -0.3785  -10.9557 C   0  0  0  0  0  0  0  0  0  0  0  0
   24.3571   -0.3080  -11.6501 C   0  0  0  0  0  0  0  0  0  0  0  0
   24.2941   -0.2876  -13.1354 C   0  0  2  0  0  0  0  0  0  0  0  0
   22.9721    0.0737  -13.5581 N   0  0  0  0  0  0  0  0  0  0  0  0
   24.5899   -1.6274  -13.6891 C   0  0  0  0  0  0  0  0  0  0  0  0
   24.8076   -2.6807  -14.1242 N   0  0  0  0  0  0  0  0  0  0  0  0
   25.5288   -0.2609  -10.9630 C   0  0  0  0  0  0  0  0  0  0  0  0
  1  2  1  6
  2  3  2  0
  2  4  2  0
  2  5  1  6
  5  6  2  0
  6  7  1  0
  7  8  1  0
  7  9  2  0
  9 10  1  0
 10 11  1  0
 11 12  1  1
 11 13  1  0
 13 14  3  0
 10 15  2  0
 15  5  1  0
M  END
$$$$
