_rank4
     RDKit          3D

 15 15  0  0  0  0  0  0  0  0999 V2000
   27.6825    1.3279   -8.1715 C   0  0  0  0  0  0  0  0  0  0  0  0
   27.2662   -0.4038   -8.1478 S   0  0  1  0  0  6  0  0  0  0  0  0
   28.5576   -1.1689   -8.1736 O   0  0  0  0  0  0  0  0  0  0  0  0
   26.4929   -0.6742   -6.9104 O   0  0  0  0  0  0  0  0  0  0  0  0
   26.3270   -0.7273   -9.5863 C   0  0  0  0  0  0  0  0  0  0  0  0
   26.9533   -1.1907  -10.7183 C   0  0  0  0  0  0  0  0  0  0  0  0
   26.2592   -1.4652  -11.8905 C   0  0  0  0  0  0  0  0  0  0  0  0
   26.8692   -1.9222  -13.0106 F   0  0  0  0  0  0  0  0  0  0  0  0
   24.8986   -1.2513  -11.8722 C   0  0  0  0  0  0  0  0  0  0  0  0
   24.2424   -0.7844  -10.7433 C   0  0  0  0  0  0  0  0  0  0  0  0
   22.7713   -0.5881  -10.8315 C   0  0  2  0  0  0  0  0  0  0  0  0
   22.1077   -1.5076   -9.9534 N   0  0  0  0  0  0  0  0  0  0  0  0
   22.2902   -0.8554  -12.2049 C   0  0  0  0  0  0  0  0  0  0  0  0
   21.9089   -1.0510  -13.2831 N   0  0  0  0  0  0  0  0  0  0  0  0
   24.9524   -0.5260   -9.6135 C   0  0  0  0  0  0  0  0  0  0  0  0
  1  2  1  6
  2  3  2  0
  2  4  2  0
  2  5  1  6
  5  6  2  0
  6  7  1  0
  7  8  1  0
  7  9  2  0
  9 10  1  0
 10 11  1  0
 11 12  1  1
 11 13  1  0
 13 14  3  0
 10 15  2  0
 15  5  1  0
M  END
$$$$
