_rank3
     RDKit          3D

 15 15  0  0  0  0  0  0  0  0999 V2000
   28.8289   -0.3695   -9.4181 C   0  0  0  0  0  0  0  0  0  0  0  0
   27.3185   -0.3583   -8.4741 S   0  0  1  0  0  6  0  0  0  0  0  0
   27.3775   -1.5263   -7.5328 O   0  0  0  0  0  0  0  0  0  0  0  0
   27.2419    0.9315   -7.7440 O   0  0  0  0  0  0  0  0  0  0  0  0
   26.0011   -0.5440   -9.6080 C   0  0  0  0  0  0  0  0  0  0  0  0
   26.2644   -0.5901  -10.9559 C   0  0  0  0  0  0  0  0  0  0  0  0
   25.2586   -0.7362  -11.9037 C   0  0  0  0  0  0  0  0  0  0  0  0
   25.5099   -0.7826  -13.2342 F   0  0  0  0  0  0  0  0  0  0  0  0
   23.9684   -0.8343  -11.4312 C   0  0  0  0  0  0  0  0  0  0  0  0
   23.6757   -0.7906  -10.0765 C   0  0  0  0  0  0  0  0  0  0  0  0
   22.2491   -0.9055   -9.6743 C   0  0  2  0  0  0  0  0  0  0  0  0
   21.6158   -1.9459  -10.4315 N   0  0  0  0  0  0  0  0  0  0  0  0
   21.5249    0.3543   -9.9529 C   0  0  0  0  0  0  0  0  0  0  0  0
   20.9689    1.3498  -10.1676 N   0  0  0  0  0  0  0  0  0  0  0  0
   24.6842   -0.6468   -9.1767 C   0  0  0  0  0  0  0  0  0  0  0  0
  1  2  1  6
  2  3  2  0
  2  4  2  0
  2  5  1  6
  5  6  2  0
  6  7  1  0
  7  8  1  0
  7  9  2  0
  9 10  1  0
 10 11  1  0
 11 12  1  6
 11 13  1  0
 13 14  3  0
 10 15  2  0
 15  5  1  0
M  END
$$$$
