_rank9
     RDKit          3D

 15 15  0  0  0  0  0  0  0  0999 V2000
   28.4857   -0.2907  -12.3094 C   0  0  0  0  0  0  0  0  0  0  0  0
   27.3256    0.9148  -11.6984 S   0  0  1  0  0  6  0  0  0  0  0  0
   28.1162    1.9495  -10.9513 O   0  0  0  0  0  0  0  0  0  0  0  0
   26.6159    1.5015  -12.8623 O   0  0  0  0  0  0  0  0  0  0  0  0
   26.2311    0.0774  -10.6229 C   0  0  0  0  0  0  0  0  0  0  0  0
   26.6810   -0.3629   -9.4014 C   0  0  0  0  0  0  0  0  0  0  0  0
   25.8576   -1.0339   -8.5053 C   0  0  0  0  0  0  0  0  0  0  0  0
   26.2934   -1.4712   -7.2994 F   0  0  0  0  0  0  0  0  0  0  0  0
   24.5533   -1.2431   -8.8961 C   0  0  0  0  0  0  0  0  0  0  0  0
   24.0743   -0.8090  -10.1229 C   0  0  0  0  0  0  0  0  0  0  0  0
   22.6497   -1.0866  -10.4454 C   0  0  2  0  0  0  0  0  0  0  0  0
   22.4934   -1.2245  -11.8643 N   0  0  0  0  0  0  0  0  0  0  0  0
   21.7874    0.0331  -10.0074 C   0  0  0  0  0  0  0  0  0  0  0  0
   21.1231    0.9196   -9.6624 N   0  0  0  0  0  0  0  0  0  0  0  0
   24.9074   -0.1557  -10.9753 C   0  0  0  0  0  0  0  0  0  0  0  0
  1  2  1  6
  2  3  2  0
  2  4  2  0
  2  5  1  1
  5  6  2  0
  6  7  1  0
  7  8  1  0
  7  9  2  0
  9 10  1  0
 10 11  1  0
 11 12  1  6
 11 13  1  0
 13 14  3  0
 10 15  2  0
 15  5  1  0
M  END
$$$$
