_rank16
     RDKit          3D

 15 15  0  0  0  0  0  0  0  0999 V2000
   25.7324    1.6445   -9.0456 C   0  0  0  0  0  0  0  0  0  0  0  0
   26.1331   -0.0497   -9.4220 S   0  0  1  0  0  6  0  0  0  0  0  0
   27.4405   -0.0409  -10.1599 O   0  0  0  0  0  0  0  0  0  0  0  0
   26.2305   -0.7947   -8.1421 O   0  0  0  0  0  0  0  0  0  0  0  0
   24.8530   -0.6678  -10.4394 C   0  0  0  0  0  0  0  0  0  0  0  0
   25.0886   -0.8803  -11.7764 C   0  0  0  0  0  0  0  0  0  0  0  0
   24.1103   -1.3697  -12.6336 C   0  0  0  0  0  0  0  0  0  0  0  0
   24.3346   -1.5819  -13.9528 F   0  0  0  0  0  0  0  0  0  0  0  0
   22.8770   -1.6372  -12.0814 C   0  0  0  0  0  0  0  0  0  0  0  0
   22.6133   -1.4317  -10.7356 C   0  0  0  0  0  0  0  0  0  0  0  0
   21.2480   -1.7533  -10.2427 C   0  0  2  0  0  0  0  0  0  0  0  0
   20.3360   -1.8100  -11.3480 N   0  0  0  0  0  0  0  0  0  0  0  0
   20.7657   -0.7031   -9.3186 C   0  0  0  0  0  0  0  0  0  0  0  0
   20.3903    0.1305   -8.6043 N   0  0  0  0  0  0  0  0  0  0  0  0
   23.5935   -0.9518   -9.9256 C   0  0  0  0  0  0  0  0  0  0  0  0
  1  2  1  6
  2  3  2  0
  2  4  2  0
  2  5  1  6
  5  6  2  0
  6  7  1  0
  7  8  1  0
  7  9  2  0
  9 10  1  0
 10 11  1  0
 11 12  1  6
 11 13  1  0
 13 14  3  0
 10 15  2  0
 15  5  1  0
M  END
$$$$
