_rank1
     RDKit          3D

 15 15  0  0  0  0  0  0  0  0999 V2000
   28.1327    0.9670   -8.5261 C   0  0  0  0  0  0  0  0  0  0  0  0
   27.2089   -0.5498   -8.3893 S   0  0  1  0  0  6  0  0  0  0  0  0
   28.1662   -1.6754   -8.6546 O   0  0  0  0  0  0  0  0  0  0  0  0
   26.6432   -0.6219   -7.0192 O   0  0  0  0  0  0  0  0  0  0  0  0
   25.9574   -0.5022   -9.6089 C   0  0  0  0  0  0  0  0  0  0  0  0
   26.2948   -0.2804  -10.9223 C   0  0  0  0  0  0  0  0  0  0  0  0
   25.3439   -0.2321  -11.9346 C   0  0  0  0  0  0  0  0  0  0  0  0
   25.6683   -0.0139  -13.2318 F   0  0  0  0  0  0  0  0  0  0  0  0
   24.0305   -0.4181  -11.5634 C   0  0  0  0  0  0  0  0  0  0  0  0
   23.6633   -0.6436  -10.2453 C   0  0  0  0  0  0  0  0  0  0  0  0
   22.2177   -0.8317   -9.9538 C   0  0  2  0  0  0  0  0  0  0  0  0
   21.7708   -2.0765  -10.5084 N   0  0  0  0  0  0  0  0  0  0  0  0
   21.4156    0.2469  -10.5725 C   0  0  0  0  0  0  0  0  0  0  0  0
   20.7804    1.0828  -11.0663 N   0  0  0  0  0  0  0  0  0  0  0  0
   24.6196   -0.6846   -9.2803 C   0  0  0  0  0  0  0  0  0  0  0  0
  1  2  1  6
  2  3  2  0
  2  4  2  0
  2  5  1  6
  5  6  2  0
  6  7  1  0
  7  8  1  0
  7  9  2  0
  9 10  1  0
 10 11  1  0
 11 12  1  6
 11 13  1  0
 13 14  3  0
 10 15  2  0
 15  5  1  0
M  END
$$$$
