_rank5
     RDKit          3D

 15 15  0  0  0  0  0  0  0  0999 V2000
   20.8438   -0.8725  -12.2025 C   0  0  0  0  0  0  0  0  0  0  0  0
   21.7502   -1.3005  -10.7302 S   0  0  1  0  0  6  0  0  0  0  0  0
   21.0814   -0.6028   -9.5814 O   0  0  0  0  0  0  0  0  0  0  0  0
   21.7072   -2.7760  -10.5762 O   0  0  0  0  0  0  0  0  0  0  0  0
   23.3836   -0.7153  -10.9427 C   0  0  0  0  0  0  0  0  0  0  0  0
   23.9893   -0.8184  -12.1718 C   0  0  0  0  0  0  0  0  0  0  0  0
   25.2850   -0.3709  -12.4004 C   0  0  0  0  0  0  0  0  0  0  0  0
   25.8892   -0.4689  -13.6090 F   0  0  0  0  0  0  0  0  0  0  0  0
   25.9475    0.1885  -11.3300 C   0  0  0  0  0  0  0  0  0  0  0  0
   25.3593    0.3044  -10.0796 C   0  0  0  0  0  0  0  0  0  0  0  0
   26.1631    0.9240   -8.9932 C   0  0  2  0  0  0  0  0  0  0  0  0
   27.2723    1.6360   -9.5586 N   0  0  0  0  0  0  0  0  0  0  0  0
   26.7107   -0.1138   -8.0919 C   0  0  0  0  0  0  0  0  0  0  0  0
   27.1533   -0.9218   -7.3866 N   0  0  0  0  0  0  0  0  0  0  0  0
   24.0901   -0.1439   -9.8913 C   0  0  0  0  0  0  0  0  0  0  0  0
  1  2  1  6
  2  3  2  0
  2  4  2  0
  2  5  1  6
  5  6  2  0
  6  7  1  0
  7  8  1  0
  7  9  2  0
  9 10  1  0
 10 11  1  0
 11 12  1  6
 11 13  1  0
 13 14  3  0
 10 15  2  0
 15  5  1  0
M  END
$$$$
