_rank11
     RDKit          3D

 15 15  0  0  0  0  0  0  0  0999 V2000
   28.0139   -0.0609  -10.1807 C   0  0  0  0  0  0  0  0  0  0  0  0
   26.8689   -0.5312   -8.9000 S   0  0  1  0  0  6  0  0  0  0  0  0
   27.1420   -1.9700   -8.5700 O   0  0  0  0  0  0  0  0  0  0  0  0
   27.0982    0.3532   -7.7304 O   0  0  0  0  0  0  0  0  0  0  0  0
   25.2587   -0.3418   -9.5538 C   0  0  0  0  0  0  0  0  0  0  0  0
   24.9110    0.8323  -10.1775 C   0  0  0  0  0  0  0  0  0  0  0  0
   23.6468    1.0401  -10.7160 C   0  0  0  0  0  0  0  0  0  0  0  0
   23.2961    2.1945  -11.3323 F   0  0  0  0  0  0  0  0  0  0  0  0
   22.7431    0.0072  -10.5980 C   0  0  0  0  0  0  0  0  0  0  0  0
   23.0687   -1.1874   -9.9735 C   0  0  0  0  0  0  0  0  0  0  0  0
   22.0183   -2.2371   -9.9006 C   0  0  2  0  0  0  0  0  0  0  0  0
   22.1301   -3.1119  -11.0316 N   0  0  0  0  0  0  0  0  0  0  0  0
   20.6696   -1.6296   -9.9371 C   0  0  0  0  0  0  0  0  0  0  0  0
   19.6146   -1.1471   -9.9527 N   0  0  0  0  0  0  0  0  0  0  0  0
   24.3147   -1.3569   -9.4578 C   0  0  0  0  0  0  0  0  0  0  0  0
  1  2  1  6
  2  3  2  0
  2  4  2  0
  2  5  1  6
  5  6  2  0
  6  7  1  0
  7  8  1  0
  7  9  2  0
  9 10  1  0
 10 11  1  0
 11 12  1  6
 11 13  1  0
 13 14  3  0
 10 15  2  0
 15  5  1  0
M  END
$$$$
