_rank8
     RDKit          3D

 15 15  0  0  0  0  0  0  0  0999 V2000
   21.2563   -2.1211  -11.9787 C   0  0  0  0  0  0  0  0  0  0  0  0
   21.6051   -1.2641  -10.4568 S   0  0  1  0  0  6  0  0  0  0  0  0
   20.7731   -0.0145  -10.4529 O   0  0  0  0  0  0  0  0  0  0  0  0
   21.2501   -2.1631   -9.3307 O   0  0  0  0  0  0  0  0  0  0  0  0
   23.3088   -0.8724  -10.4651 C   0  0  0  0  0  0  0  0  0  0  0  0
   24.0999   -1.2527   -9.4078 C   0  0  0  0  0  0  0  0  0  0  0  0
   25.4596   -0.9695   -9.3591 C   0  0  0  0  0  0  0  0  0  0  0  0
   26.2464   -1.3408   -8.3206 F   0  0  0  0  0  0  0  0  0  0  0  0
   25.9903   -0.2823  -10.4286 C   0  0  0  0  0  0  0  0  0  0  0  0
   25.2141    0.1128  -11.5076 C   0  0  0  0  0  0  0  0  0  0  0  0
   25.8874    0.8495  -12.6095 C   0  0  2  0  0  0  0  0  0  0  0  0
   25.9016    0.0405  -13.7937 N   0  0  0  0  0  0  0  0  0  0  0  0
   27.2926    1.1485  -12.2555 C   0  0  0  0  0  0  0  0  0  0  0  0
   28.3905    1.3963  -11.9738 N   0  0  0  0  0  0  0  0  0  0  0  0
   23.8871   -0.1808  -11.5225 C   0  0  0  0  0  0  0  0  0  0  0  0
  1  2  1  6
  2  3  2  0
  2  4  2  0
  2  5  1  6
  5  6  2  0
  6  7  1  0
  7  8  1  0
  7  9  2  0
  9 10  1  0
 10 11  1  0
 11 12  1  6
 11 13  1  0
 13 14  3  0
 10 15  2  0
 15  5  1  0
M  END
$$$$
