_rank6
     RDKit          3D

 15 15  0  0  0  0  0  0  0  0999 V2000
   28.4805   -1.3413   -8.7159 C   0  0  0  0  0  0  0  0  0  0  0  0
   27.2039   -0.1357   -8.4171 S   0  0  1  0  0  6  0  0  0  0  0  0
   26.4905   -0.5497   -7.1627 O   0  0  0  0  0  0  0  0  0  0  0  0
   27.8504    1.1918   -8.2680 O   0  0  0  0  0  0  0  0  0  0  0  0
   26.1206   -0.1821   -9.7883 C   0  0  0  0  0  0  0  0  0  0  0  0
   26.5643    0.2331  -11.0208 C   0  0  0  0  0  0  0  0  0  0  0  0
   25.7492    0.2188  -12.1462 C   0  0  0  0  0  0  0  0  0  0  0  0
   26.1789    0.6264  -13.3647 F   0  0  0  0  0  0  0  0  0  0  0  0
   24.4599   -0.2348  -11.9745 C   0  0  0  0  0  0  0  0  0  0  0  0
   23.9873   -0.6593  -10.7419 C   0  0  0  0  0  0  0  0  0  0  0  0
   22.5790   -1.1299  -10.6670 C   0  0  2  0  0  0  0  0  0  0  0  0
   21.7995   -0.4854  -11.6838 N   0  0  0  0  0  0  0  0  0  0  0  0
   21.9815   -0.7832   -9.3586 C   0  0  0  0  0  0  0  0  0  0  0  0
   21.5043   -0.5015   -8.3392 N   0  0  0  0  0  0  0  0  0  0  0  0
   24.8119   -0.6320   -9.6618 C   0  0  0  0  0  0  0  0  0  0  0  0
  1  2  1  6
  2  3  2  0
  2  4  2  0
  2  5  1  6
  5  6  2  0
  6  7  1  0
  7  8  1  0
  7  9  2  0
  9 10  1  0
 10 11  1  0
 11 12  1  6
 11 13  1  0
 13 14  3  0
 10 15  2  0
 15  5  1  0
M  END
$$$$
