_rank18
     RDKit          3D

 15 15  0  0  0  0  0  0  0  0999 V2000
   25.0191   -0.3078   -7.9174 C   0  0  0  0  0  0  0  0  0  0  0  0
   25.5175   -0.1763   -9.3000 C   0  0  0  0  0  0  0  0  0  0  0  0
   26.8419   -0.1352   -9.6508 C   0  0  0  0  0  0  0  0  0  0  0  0
   27.2841   -0.0121  -10.9500 C   0  0  0  0  0  0  0  0  0  0  0  0
   26.3425    0.0749  -11.9585 C   0  0  0  0  0  0  0  0  0  0  0  0
   26.7667    0.2103  -13.3925 C   0  0  2  0  0  0  0  0  0  0  0  0
   27.0399   -1.0259  -13.9656 O   0  0  0  0  0  0  0  0  0  0  0  0
   27.8520    1.1546  -13.4990 C   0  0  0  0  0  0  0  0  0  0  0  0
   28.7280    1.9179  -13.5659 N   0  0  0  0  0  0  0  0  0  0  0  0
   25.0073    0.0350  -11.6205 C   0  0  0  0  0  0  0  0  0  0  0  0
   24.5702   -0.0886  -10.3151 C   0  0  0  0  0  0  0  0  0  0  0  0
   22.8763   -0.1283  -10.0004 S   0  0  1  0  0  6  0  0  0  0  0  0
   22.2589   -1.7628  -10.3041 C   0  0  0  0  0  0  0  0  0  0  0  0
   22.5091    0.3600   -8.6425 O   0  0  0  0  0  0  0  0  0  0  0  0
   22.2061    0.7985  -10.9998 O   0  0  0  0  0  0  0  0  0  0  0  0
  1  2  1  6
  2  3  2  0
  3  4  1  0
  4  5  2  0
  5  6  1  0
  6  7  1  1
  6  8  1  0
  8  9  3  0
  5 10  1  0
 10 11  2  0
 12 11  1  1
 13 12  1  1
 12 14  2  0
 12 15  2  0
 11  2  1  0
M  END
$$$$
