_rank6
     RDKit          3D

 15 15  0  0  0  0  0  0  0  0999 V2000
   27.7572   -0.1309   -9.1649 C   0  0  0  0  0  0  0  0  0  0  0  0
   26.3252   -0.2617   -9.4960 C   0  0  0  0  0  0  0  0  0  0  0  0
   25.3557   -0.6694   -8.6171 C   0  0  0  0  0  0  0  0  0  0  0  0
   24.0233   -0.7839   -8.9492 C   0  0  0  0  0  0  0  0  0  0  0  0
   23.6393   -0.4710  -10.2399 C   0  0  0  0  0  0  0  0  0  0  0  0
   22.2010   -0.5773  -10.6578 C   0  0  2  0  0  0  0  0  0  0  0  0
   21.3395   -0.2198   -9.6276 O   0  0  0  0  0  0  0  0  0  0  0  0
   21.9419   -1.8861  -11.2062 C   0  0  0  0  0  0  0  0  0  0  0  0
   21.7366   -2.9353  -11.6661 N   0  0  0  0  0  0  0  0  0  0  0  0
   24.6033   -0.0597  -11.1344 C   0  0  0  0  0  0  0  0  0  0  0  0
   25.9384    0.0530  -10.7948 C   0  0  0  0  0  0  0  0  0  0  0  0
   27.0641    0.5764  -11.9901 S   0  0  1  0  0  6  0  0  0  0  0  0
   26.6862    2.2426  -12.4657 C   0  0  0  0  0  0  0  0  0  0  0  0
   28.4869    0.4264  -11.5775 O   0  0  0  0  0  0  0  0  0  0  0  0
   26.8648   -0.2974  -13.2163 O   0  0  0  0  0  0  0  0  0  0  0  0
  1  2  1  6
  2  3  2  0
  3  4  1  0
  4  5  2  0
  5  6  1  0
  6  7  1  1
  6  8  1  0
  8  9  3  0
  5 10  1  0
 10 11  2  0
 12 11  1  1
 13 12  1  1
 12 14  2  0
 12 15  2  0
 11  2  1  0
M  END
$$$$
