_rank4
     RDKit          3D

 15 15  0  0  0  0  0  0  0  0999 V2000
   27.2144    0.5935  -12.0992 C   0  0  0  0  0  0  0  0  0  0  0  0
   25.9280    0.0590  -11.6128 C   0  0  0  0  0  0  0  0  0  0  0  0
   24.7721    0.0190  -12.3484 C   0  0  0  0  0  0  0  0  0  0  0  0
   23.5814   -0.4856  -11.8727 C   0  0  0  0  0  0  0  0  0  0  0  0
   23.5469   -0.9799  -10.5820 C   0  0  0  0  0  0  0  0  0  0  0  0
   22.2769   -1.5420  -10.0111 C   0  0  2  0  0  0  0  0  0  0  0  0
   21.7997   -2.6044  -10.7693 O   0  0  0  0  0  0  0  0  0  0  0  0
   21.3136   -0.4860   -9.8164 C   0  0  0  0  0  0  0  0  0  0  0  0
   20.5230    0.3528   -9.6559 N   0  0  0  0  0  0  0  0  0  0  0  0
   24.7015   -0.9460   -9.8308 C   0  0  0  0  0  0  0  0  0  0  0  0
   25.8928   -0.4384  -10.3141 C   0  0  0  0  0  0  0  0  0  0  0  0
   27.2798   -0.4424   -9.2912 S   0  0  1  0  0  6  0  0  0  0  0  0
   27.0308   -1.5938   -7.9656 C   0  0  0  0  0  0  0  0  0  0  0  0
   28.5557   -0.6975  -10.0153 O   0  0  0  0  0  0  0  0  0  0  0  0
   27.3919    0.9397   -8.6713 O   0  0  0  0  0  0  0  0  0  0  0  0
  1  2  1  6
  2  3  2  0
  3  4  1  0
  4  5  2  0
  5  6  1  0
  6  7  1  6
  6  8  1  0
  8  9  3  0
  5 10  1  0
 10 11  2  0
 12 11  1  6
 13 12  1  1
 12 14  2  0
 12 15  2  0
 11  2  1  0
M  END
$$$$
