_rank11
     RDKit          3D

 15 15  0  0  0  0  0  0  0  0999 V2000
   27.3091    0.2304  -12.1399 C   0  0  0  0  0  0  0  0  0  0  0  0
   25.9811   -0.1053  -11.5913 C   0  0  0  0  0  0  0  0  0  0  0  0
   24.8306   -0.1911  -12.3314 C   0  0  0  0  0  0  0  0  0  0  0  0
   23.6006   -0.5069  -11.7967 C   0  0  0  0  0  0  0  0  0  0  0  0
   23.5184   -0.7515  -10.4385 C   0  0  0  0  0  0  0  0  0  0  0  0
   22.2041   -1.1001   -9.8014 C   0  0  2  0  0  0  0  0  0  0  0  0
   22.3785   -1.6917   -8.5561 O   0  0  0  0  0  0  0  0  0  0  0  0
   21.4067   -1.8844  -10.7126 C   0  0  0  0  0  0  0  0  0  0  0  0
   20.7499   -2.5036  -11.4471 N   0  0  0  0  0  0  0  0  0  0  0  0
   24.6671   -0.6689   -9.6820 C   0  0  0  0  0  0  0  0  0  0  0  0
   25.8980   -0.3516  -10.2246 C   0  0  0  0  0  0  0  0  0  0  0  0
   27.2735   -0.2740   -9.1892 S   0  0  1  0  0  6  0  0  0  0  0  0
   26.7525   -0.4514   -7.5033 C   0  0  0  0  0  0  0  0  0  0  0  0
   28.3443   -1.2459   -9.5440 O   0  0  0  0  0  0  0  0  0  0  0  0
   27.8721    1.1147   -9.3311 O   0  0  0  0  0  0  0  0  0  0  0  0
  1  2  1  6
  2  3  2  0
  3  4  1  0
  4  5  2  0
  5  6  1  0
  6  7  1  1
  6  8  1  0
  8  9  3  0
  5 10  1  0
 10 11  2  0
 12 11  1  6
 13 12  1  1
 12 14  2  0
 12 15  2  0
 11  2  1  0
M  END
$$$$
