_rank15
     RDKit          3D

 15 15  0  0  0  0  0  0  0  0999 V2000
   28.0942   -0.2330   -9.9819 C   0  0  0  0  0  0  0  0  0  0  0  0
   26.6618   -0.4344   -9.6903 C   0  0  0  0  0  0  0  0  0  0  0  0
   26.1744   -1.0731   -8.5799 C   0  0  0  0  0  0  0  0  0  0  0  0
   24.8311   -1.2492   -8.3284 C   0  0  0  0  0  0  0  0  0  0  0  0
   23.9215   -0.7554   -9.2449 C   0  0  0  0  0  0  0  0  0  0  0  0
   22.4454   -0.9183   -9.0227 C   0  0  2  0  0  0  0  0  0  0  0  0
   22.1732   -1.4990   -7.7898 O   0  0  0  0  0  0  0  0  0  0  0  0
   21.8522   -1.6144  -10.1383 C   0  0  0  0  0  0  0  0  0  0  0  0
   21.3717   -2.1593  -11.0474 N   0  0  0  0  0  0  0  0  0  0  0  0
   24.3972   -0.1109  -10.3661 C   0  0  0  0  0  0  0  0  0  0  0  0
   25.7462    0.0624  -10.6124 C   0  0  0  0  0  0  0  0  0  0  0  0
   26.2358    0.8832  -12.0464 S   0  0  1  0  0  6  0  0  0  0  0  0
   26.9892   -0.2739  -13.1594 C   0  0  0  0  0  0  0  0  0  0  0  0
   25.1391    1.6488  -12.7009 O   0  0  0  0  0  0  0  0  0  0  0  0
   27.3035    1.8891  -11.6529 O   0  0  0  0  0  0  0  0  0  0  0  0
  1  2  1  6
  2  3  2  0
  3  4  1  0
  4  5  2  0
  5  6  1  0
  6  7  1  1
  6  8  1  0
  8  9  3  0
  5 10  1  0
 10 11  2  0
 12 11  1  1
 13 12  1  1
 12 14  2  0
 12 15  2  0
 11  2  1  0
M  END
$$$$
