_rank13
     RDKit          3D

 15 15  0  0  0  0  0  0  0  0999 V2000
   27.5817   -1.4143   -8.2426 C   0  0  0  0  0  0  0  0  0  0  0  0
   26.2919   -1.2308   -8.9355 C   0  0  0  0  0  0  0  0  0  0  0  0
   25.1231   -1.8555   -8.5857 C   0  0  0  0  0  0  0  0  0  0  0  0
   23.9294   -1.6682   -9.2481 C   0  0  0  0  0  0  0  0  0  0  0  0
   23.9056   -0.8027  -10.3259 C   0  0  0  0  0  0  0  0  0  0  0  0
   22.6329   -0.5600  -11.0850 C   0  0  2  0  0  0  0  0  0  0  0  0
   21.7824    0.2990  -10.3995 O   0  0  0  0  0  0  0  0  0  0  0  0
   22.0250   -1.8180  -11.4440 C   0  0  0  0  0  0  0  0  0  0  0  0
   21.5494   -2.8421  -11.7258 N   0  0  0  0  0  0  0  0  0  0  0  0
   25.0733   -0.1677  -10.6889 C   0  0  0  0  0  0  0  0  0  0  0  0
   26.2675   -0.3600  -10.0201 C   0  0  0  0  0  0  0  0  0  0  0  0
   27.6715    0.4835  -10.5562 S   0  0  1  0  0  6  0  0  0  0  0  0
   27.2600    2.1826  -10.8543 C   0  0  0  0  0  0  0  0  0  0  0  0
   28.8369    0.3476   -9.6392 O   0  0  0  0  0  0  0  0  0  0  0  0
   28.0839   -0.1196  -11.8877 O   0  0  0  0  0  0  0  0  0  0  0  0
  1  2  1  6
  2  3  2  0
  3  4  1  0
  4  5  2  0
  5  6  1  0
  6  7  1  1
  6  8  1  0
  8  9  3  0
  5 10  1  0
 10 11  2  0
 12 11  1  1
 13 12  1  1
 12 14  2  0
 12 15  2  0
 11  2  1  0
M  END
$$$$
