_rank8
     RDKit          3D

 15 15  0  0  0  0  0  0  0  0999 V2000
   27.3909   -0.1491   -9.2742 C   0  0  0  0  0  0  0  0  0  0  0  0
   26.0400   -0.5422   -9.7190 C   0  0  0  0  0  0  0  0  0  0  0  0
   25.2168   -1.4049   -9.0433 C   0  0  0  0  0  0  0  0  0  0  0  0
   23.9578   -1.7574   -9.4783 C   0  0  0  0  0  0  0  0  0  0  0  0
   23.4958   -1.2124  -10.6618 C   0  0  0  0  0  0  0  0  0  0  0  0
   22.1316   -1.5606  -11.1841 C   0  0  2  0  0  0  0  0  0  0  0  0
   21.7196   -0.6757  -12.1732 O   0  0  0  0  0  0  0  0  0  0  0  0
   21.2010   -1.6849  -10.0889 C   0  0  0  0  0  0  0  0  0  0  0  0
   20.4625   -1.7966   -9.1964 N   0  0  0  0  0  0  0  0  0  0  0  0
   24.3126   -0.3434  -11.3519 C   0  0  0  0  0  0  0  0  0  0  0  0
   25.5747    0.0060  -10.9100 C   0  0  0  0  0  0  0  0  0  0  0  0
   26.5162    1.1019  -11.8496 S   0  0  1  0  0  6  0  0  0  0  0  0
   27.8824    0.2335  -12.5738 C   0  0  0  0  0  0  0  0  0  0  0  0
   25.7268    1.8445  -12.8707 O   0  0  0  0  0  0  0  0  0  0  0  0
   27.0938    2.1362  -10.8991 O   0  0  0  0  0  0  0  0  0  0  0  0
  1  2  1  6
  2  3  2  0
  3  4  1  0
  4  5  2  0
  5  6  1  0
  6  7  1  6
  6  8  1  0
  8  9  3  0
  5 10  1  0
 10 11  2  0
 12 11  1  1
 13 12  1  1
 12 14  2  0
 12 15  2  0
 11  2  1  0
M  END
$$$$
