_rank7
     RDKit          3D

 15 15  0  0  0  0  0  0  0  0999 V2000
   27.5896   -0.1616   -8.9496 C   0  0  0  0  0  0  0  0  0  0  0  0
   26.2519   -0.4030   -9.5236 C   0  0  0  0  0  0  0  0  0  0  0  0
   25.2378   -1.0682   -8.8851 C   0  0  0  0  0  0  0  0  0  0  0  0
   23.9954   -1.2816   -9.4415 C   0  0  0  0  0  0  0  0  0  0  0  0
   23.7547   -0.7992  -10.7145 C   0  0  0  0  0  0  0  0  0  0  0  0
   22.4193   -1.0024  -11.3705 C   0  0  2  0  0  0  0  0  0  0  0  0
   22.0943    0.0555  -12.2110 O   0  0  0  0  0  0  0  0  0  0  0  0
   21.4166   -1.2827  -10.3721 C   0  0  0  0  0  0  0  0  0  0  0  0
   20.5972   -1.5178   -9.5798 N   0  0  0  0  0  0  0  0  0  0  0  0
   24.7651   -0.1284  -11.3686 C   0  0  0  0  0  0  0  0  0  0  0  0
   26.0093    0.0823  -10.8047 C   0  0  0  0  0  0  0  0  0  0  0  0
   27.2040    0.9337  -11.7090 S   0  0  1  0  0  6  0  0  0  0  0  0
   26.9406    0.6564  -13.4407 C   0  0  0  0  0  0  0  0  0  0  0  0
   27.2774    2.3851  -11.3844 O   0  0  0  0  0  0  0  0  0  0  0  0
   28.5541    0.3332  -11.3577 O   0  0  0  0  0  0  0  0  0  0  0  0
  1  2  1  6
  2  3  2  0
  3  4  1  0
  4  5  2  0
  5  6  1  0
  6  7  1  1
  6  8  1  0
  8  9  3  0
  5 10  1  0
 10 11  2  0
 12 11  1  1
 13 12  1  1
 12 14  2  0
 12 15  2  0
 11  2  1  0
M  END
$$$$
