_rank5
     RDKit          3D

 15 15  0  0  0  0  0  0  0  0999 V2000
   27.6663   -0.8196  -11.4445 C   0  0  0  0  0  0  0  0  0  0  0  0
   26.2280   -0.8127  -11.1150 C   0  0  0  0  0  0  0  0  0  0  0  0
   25.2229   -1.0899  -12.0047 C   0  0  0  0  0  0  0  0  0  0  0  0
   23.8854   -1.0776  -11.6738 C   0  0  0  0  0  0  0  0  0  0  0  0
   23.5338   -0.7689  -10.3729 C   0  0  0  0  0  0  0  0  0  0  0  0
   22.0917   -0.7405   -9.9557 C   0  0  2  0  0  0  0  0  0  0  0  0
   21.8818   -1.4601   -8.7854 O   0  0  0  0  0  0  0  0  0  0  0  0
   21.2522   -1.1550  -11.0531 C   0  0  0  0  0  0  0  0  0  0  0  0
   20.5906   -1.4914  -11.9495 N   0  0  0  0  0  0  0  0  0  0  0  0
   24.5339   -0.4879   -9.4676 C   0  0  0  0  0  0  0  0  0  0  0  0
   25.8739   -0.5020   -9.8060 C   0  0  0  0  0  0  0  0  0  0  0  0
   27.0457   -0.1349   -8.5969 S   0  0  1  0  0  6  0  0  0  0  0  0
   27.8938    1.3603   -9.0331 C   0  0  0  0  0  0  0  0  0  0  0  0
   26.4838   -0.0723   -7.2194 O   0  0  0  0  0  0  0  0  0  0  0  0
   28.0733   -1.2534   -8.6048 O   0  0  0  0  0  0  0  0  0  0  0  0
  1  2  1  6
  2  3  2  0
  3  4  1  0
  4  5  2  0
  5  6  1  0
  6  7  1  1
  6  8  1  0
  8  9  3  0
  5 10  1  0
 10 11  2  0
 12 11  1  6
 13 12  1  1
 12 14  2  0
 12 15  2  0
 11  2  1  0
M  END
$$$$
