_rank17
     RDKit          3D

 15 15  0  0  0  0  0  0  0  0999 V2000
   23.7534    0.4522  -13.3903 C   0  0  0  0  0  0  0  0  0  0  0  0
   24.6672    0.1392  -12.2749 C   0  0  0  0  0  0  0  0  0  0  0  0
   26.0347    0.1960  -12.3478 C   0  0  0  0  0  0  0  0  0  0  0  0
   26.8686   -0.1008  -11.2918 C   0  0  0  0  0  0  0  0  0  0  0  0
   26.2977   -0.4771  -10.0902 C   0  0  0  0  0  0  0  0  0  0  0  0
   27.1575   -0.8119   -8.9056 C   0  0  2  0  0  0  0  0  0  0  0  0
   26.8154   -2.0408   -8.3542 O   0  0  0  0  0  0  0  0  0  0  0  0
   27.1392    0.2767   -7.9592 C   0  0  0  0  0  0  0  0  0  0  0  0
   27.1054    1.1545   -7.1958 N   0  0  0  0  0  0  0  0  0  0  0  0
   24.9240   -0.5386  -10.0024 C   0  0  0  0  0  0  0  0  0  0  0  0
   24.0931   -0.2396  -11.0656 C   0  0  0  0  0  0  0  0  0  0  0  0
   22.3868   -0.3485  -10.8500 S   0  0  1  0  0  6  0  0  0  0  0  0
   22.0347   -1.3708   -9.4442 C   0  0  0  0  0  0  0  0  0  0  0  0
   21.7104    0.9748  -10.7568 O   0  0  0  0  0  0  0  0  0  0  0  0
   21.8178   -1.0509  -12.0705 O   0  0  0  0  0  0  0  0  0  0  0  0
  1  2  1  6
  2  3  2  0
  3  4  1  0
  4  5  2  0
  5  6  1  0
  6  7  1  1
  6  8  1  0
  8  9  3  0
  5 10  1  0
 10 11  2  0
 12 11  1  6
 13 12  1  1
 12 14  2  0
 12 15  2  0
 11  2  1  0
M  END
$$$$
