_rank9
     RDKit          3D

 15 15  0  0  0  0  0  0  0  0999 V2000
   27.1434    0.1527   -8.8140 C   0  0  0  0  0  0  0  0  0  0  0  0
   25.8753   -0.2845   -9.4291 C   0  0  0  0  0  0  0  0  0  0  0  0
   24.7853   -0.7362   -8.7316 C   0  0  0  0  0  0  0  0  0  0  0  0
   23.6105   -1.1392   -9.3282 C   0  0  0  0  0  0  0  0  0  0  0  0
   23.5226   -1.0864  -10.7069 C   0  0  0  0  0  0  0  0  0  0  0  0
   22.2668   -1.5130  -11.4109 C   0  0  2  0  0  0  0  0  0  0  0  0
   21.8403   -0.5563  -12.3242 O   0  0  0  0  0  0  0  0  0  0  0  0
   21.2620   -1.8857  -10.4453 C   0  0  0  0  0  0  0  0  0  0  0  0
   20.4575   -2.2044   -9.6671 N   0  0  0  0  0  0  0  0  0  0  0  0
   24.6108   -0.6344  -11.4211 C   0  0  0  0  0  0  0  0  0  0  0  0
   25.7865   -0.2316  -10.8164 C   0  0  0  0  0  0  0  0  0  0  0  0
   27.0889    0.3171  -11.8027 S   0  0  1  0  0  6  0  0  0  0  0  0
   27.1798    2.0866  -11.7278 C   0  0  0  0  0  0  0  0  0  0  0  0
   28.3949   -0.3197  -11.4767 O   0  0  0  0  0  0  0  0  0  0  0  0
   26.7612   -0.0560  -13.2381 O   0  0  0  0  0  0  0  0  0  0  0  0
  1  2  1  6
  2  3  2  0
  3  4  1  0
  4  5  2  0
  5  6  1  0
  6  7  1  1
  6  8  1  0
  8  9  3  0
  5 10  1  0
 10 11  2  0
 12 11  1  1
 13 12  1  1
 12 14  2  0
 12 15  2  0
 11  2  1  0
M  END
$$$$
