_rank1
     RDKit          3D

 15 15  0  0  0  0  0  0  0  0999 V2000
   26.9872   -0.1446  -11.7564 C   0  0  0  0  0  0  0  0  0  0  0  0
   25.6276   -0.4264  -11.2571 C   0  0  0  0  0  0  0  0  0  0  0  0
   24.5082   -0.5029  -12.0442 C   0  0  0  0  0  0  0  0  0  0  0  0
   23.2475   -0.7679  -11.5552 C   0  0  0  0  0  0  0  0  0  0  0  0
   23.0998   -0.9683  -10.1953 C   0  0  0  0  0  0  0  0  0  0  0  0
   21.7496   -1.2606   -9.6067 C   0  0  2  0  0  0  0  0  0  0  0  0
   21.4328   -2.6108   -9.6948 O   0  0  0  0  0  0  0  0  0  0  0  0
   20.7581   -0.3901  -10.1900 C   0  0  0  0  0  0  0  0  0  0  0  0
   19.9712    0.3261  -10.6614 N   0  0  0  0  0  0  0  0  0  0  0  0
   24.2166   -0.8943   -9.3917 C   0  0  0  0  0  0  0  0  0  0  0  0
   25.4785   -0.6281   -9.8887 C   0  0  0  0  0  0  0  0  0  0  0  0
   26.8097   -0.5568   -8.7965 S   0  0  1  0  0  6  0  0  0  0  0  0
   27.6082    1.0199   -8.9431 C   0  0  0  0  0  0  0  0  0  0  0  0
   26.4429   -0.8640   -7.3864 O   0  0  0  0  0  0  0  0  0  0  0  0
   27.8126   -1.6110   -9.2322 O   0  0  0  0  0  0  0  0  0  0  0  0
  1  2  1  6
  2  3  2  0
  3  4  1  0
  4  5  2  0
  5  6  1  0
  6  7  1  6
  6  8  1  0
  8  9  3  0
  5 10  1  0
 10 11  2  0
 12 11  1  6
 13 12  1  1
 12 14  2  0
 12 15  2  0
 11  2  1  0
M  END
$$$$
