_rank14
     RDKit          3D

 15 15  0  0  0  0  0  0  0  0999 V2000
   27.8964   -1.7817   -8.8872 C   0  0  0  0  0  0  0  0  0  0  0  0
   26.5093   -1.5794   -9.3482 C   0  0  0  0  0  0  0  0  0  0  0  0
   25.5141   -2.5178   -9.2614 C   0  0  0  0  0  0  0  0  0  0  0  0
   24.2247   -2.3060   -9.6987 C   0  0  0  0  0  0  0  0  0  0  0  0
   23.9139   -1.0799  -10.2567 C   0  0  0  0  0  0  0  0  0  0  0  0
   22.5250   -0.7933  -10.7503 C   0  0  2  0  0  0  0  0  0  0  0  0
   21.8202    0.0097   -9.8616 O   0  0  0  0  0  0  0  0  0  0  0  0
   21.8537   -2.0271  -11.0791 C   0  0  0  0  0  0  0  0  0  0  0  0
   21.3176   -3.0297  -11.3275 N   0  0  0  0  0  0  0  0  0  0  0  0
   24.9046   -0.1268  -10.3505 C   0  0  0  0  0  0  0  0  0  0  0  0
   26.1962   -0.3457   -9.9098 C   0  0  0  0  0  0  0  0  0  0  0  0
   27.3607    0.9140  -10.0743 S   0  0  1  0  0  6  0  0  0  0  0  0
   27.8187    1.5064   -8.4666 C   0  0  0  0  0  0  0  0  0  0  0  0
   28.5500    0.5267  -10.8823 O   0  0  0  0  0  0  0  0  0  0  0  0
   26.6871    2.0642  -10.8023 O   0  0  0  0  0  0  0  0  0  0  0  0
  1  2  1  6
  2  3  2  0
  3  4  1  0
  4  5  2  0
  5  6  1  0
  6  7  1  1
  6  8  1  0
  8  9  3  0
  5 10  1  0
 10 11  2  0
 12 11  1  1
 13 12  1  1
 12 14  2  0
 12 15  2  0
 11  2  1  0
M  END
$$$$
