_rank10
     RDKit          3D

 15 15  0  0  0  0  0  0  0  0999 V2000
   27.4242   -0.0759   -8.3705 C   0  0  0  0  0  0  0  0  0  0  0  0
   26.1143   -0.2785   -9.0187 C   0  0  0  0  0  0  0  0  0  0  0  0
   24.9601   -0.6095   -8.3578 C   0  0  0  0  0  0  0  0  0  0  0  0
   23.7470   -0.7934   -8.9849 C   0  0  0  0  0  0  0  0  0  0  0  0
   23.6869   -0.6361  -10.3571 C   0  0  0  0  0  0  0  0  0  0  0  0
   22.3918   -0.8242  -11.0934 C   0  0  2  0  0  0  0  0  0  0  0  0
   21.8612    0.3887  -11.5161 O   0  0  0  0  0  0  0  0  0  0  0  0
   21.4823   -1.6128  -10.2985 C   0  0  0  0  0  0  0  0  0  0  0  0
   20.7634   -2.2586   -9.6501 N   0  0  0  0  0  0  0  0  0  0  0  0
   24.8396   -0.3034  -11.0348 C   0  0  0  0  0  0  0  0  0  0  0  0
   26.0534   -0.1203  -10.3996 C   0  0  0  0  0  0  0  0  0  0  0  0
   27.4360    0.2943  -11.3412 S   0  0  1  0  0  6  0  0  0  0  0  0
   27.0116    0.2486  -13.0625 C   0  0  0  0  0  0  0  0  0  0  0  0
   28.0535    1.5934  -10.9564 O   0  0  0  0  0  0  0  0  0  0  0  0
   28.4841   -0.7799  -11.1079 O   0  0  0  0  0  0  0  0  0  0  0  0
  1  2  1  6
  2  3  2  0
  3  4  1  0
  4  5  2  0
  5  6  1  0
  6  7  1  1
  6  8  1  0
  8  9  3  0
  5 10  1  0
 10 11  2  0
 12 11  1  1
 13 12  1  1
 12 14  2  0
 12 15  2  0
 11  2  1  0
M  END
$$$$
