_rank19
     RDKit          3D

 15 15  0  0  0  0  0  0  0  0999 V2000
   27.9179   -0.3266  -11.9058 C   0  0  0  0  0  0  0  0  0  0  0  0
   26.5308   -0.5327  -11.4466 C   0  0  0  0  0  0  0  0  0  0  0  0
   26.0332   -1.7204  -10.9770 C   0  0  0  0  0  0  0  0  0  0  0  0
   24.7332   -1.8892  -10.5529 C   0  0  0  0  0  0  0  0  0  0  0  0
   23.8802   -0.8023  -10.6024 C   0  0  0  0  0  0  0  0  0  0  0  0
   22.4529   -0.9280  -10.1531 C   0  0  2  0  0  0  0  0  0  0  0  0
   21.6870    0.1545  -10.5687 O   0  0  0  0  0  0  0  0  0  0  0  0
   22.4024   -1.1659   -8.7312 C   0  0  0  0  0  0  0  0  0  0  0  0
   22.3428   -1.3613   -7.5855 N   0  0  0  0  0  0  0  0  0  0  0  0
   24.3668    0.3981  -11.0723 C   0  0  0  0  0  0  0  0  0  0  0  0
   25.6722    0.5608  -11.4963 C   0  0  0  0  0  0  0  0  0  0  0  0
   26.1798    2.1056  -12.0671 S   0  0  1  0  0  6  0  0  0  0  0  0
   27.0310    1.9125  -13.6110 C   0  0  0  0  0  0  0  0  0  0  0  0
   25.0755    3.0998  -12.1631 O   0  0  0  0  0  0  0  0  0  0  0  0
   27.1824    2.6535  -11.0664 O   0  0  0  0  0  0  0  0  0  0  0  0
  1  2  1  6
  2  3  2  0
  3  4  1  0
  4  5  2  0
  5  6  1  0
  6  7  1  1
  6  8  1  0
  8  9  3  0
  5 10  1  0
 10 11  2  0
 12 11  1  1
 13 12  1  1
 12 14  2  0
 12 15  2  0
 11  2  1  0
M  END
$$$$
