_rank6
     RDKit          3D

 20 21  0  0  0  0  0  0  0  0999 V2000
   25.9517    1.6061  -12.9085 C   0  0  0  0  0  0  0  0  0  0  0  0
   26.6557    0.1667  -12.1818 S   0  0  2  0  0  6  0  0  0  0  0  0
   28.1617    0.2559  -12.4509 O   0  0  0  0  0  0  0  0  0  0  0  0
   26.2417   -1.1053  -12.8683 O   0  0  0  0  0  0  0  0  0  0  0  0
   26.4463    0.0807  -10.4611 C   0  0  0  0  0  0  0  0  0  0  0  0
   27.5676    0.1391   -9.6094 C   0  0  0  0  0  0  0  0  0  0  0  0
   27.3510    0.1014   -8.2522 C   0  0  0  0  0  0  0  0  0  0  0  0
   26.0904    0.0096   -7.7014 C   0  0  0  0  0  0  0  0  0  0  0  0
   25.0558   -0.0439   -8.5511 N   0  0  0  0  0  0  0  0  0  0  0  0
   25.2096   -0.0108   -9.9126 C   0  0  0  0  0  0  0  0  0  0  0  0
   24.0347   -0.1100  -10.7580 C   0  0  0  0  0  0  0  0  0  0  0  0
   23.8688   -0.8455  -11.7317 O   0  0  0  0  0  0  0  0  0  0  0  0
   22.9257    0.7217  -10.4604 O   0  0  0  0  0  0  0  0  0  0  0  0
   21.6552    0.2294  -10.5472 C   0  0  0  0  0  0  0  0  0  0  0  0
   20.6233    0.7759   -9.8252 C   0  0  0  0  0  0  0  0  0  0  0  0
   19.3247    0.2490   -9.9338 C   0  0  0  0  0  0  0  0  0  0  0  0
   19.0930   -0.8149  -10.7652 C   0  0  0  0  0  0  0  0  0  0  0  0
   20.1156   -1.3713  -11.4932 C   0  0  0  0  0  0  0  0  0  0  0  0
   19.8307   -2.4196  -12.2980 F   0  0  0  0  0  0  0  0  0  0  0  0
   21.3860   -0.8361  -11.3704 C   0  0  0  0  0  0  0  0  0  0  0  0
  1  2  1  6
  2  3  2  0
  2  4  2  0
  2  5  1  1
  5  6  2  0
  6  7  1  0
  7  8  2  0
  8  9  1  0
  9 10  2  0
 10 11  1  0
 11 12  2  0
 11 13  1  0
 13 14  1  0
 14 15  2  0
 15 16  1  0
 16 17  2  0
 17 18  1  0
 18 19  1  0
 18 20  2  0
 10  5  1  0
 20 14  1  0
M  END
$$$$
