_rank10
     RDKit          3D

 20 21  0  0  0  0  0  0  0  0999 V2000
   25.8797   -0.9949  -12.9774 C   0  0  0  0  0  0  0  0  0  0  0  0
   26.5862    0.3814  -12.1393 S   0  0  2  0  0  6  0  0  0  0  0  0
   25.6720    1.5723  -12.4459 O   0  0  0  0  0  0  0  0  0  0  0  0
   27.9181    0.7955  -12.7006 O   0  0  0  0  0  0  0  0  0  0  0  0
   26.6302    0.1993  -10.4139 C   0  0  0  0  0  0  0  0  0  0  0  0
   27.8595    0.2662   -9.7279 C   0  0  0  0  0  0  0  0  0  0  0  0
   27.8422    0.1504   -8.3580 C   0  0  0  0  0  0  0  0  0  0  0  0
   26.6785   -0.0269   -7.6401 C   0  0  0  0  0  0  0  0  0  0  0  0
   25.5351   -0.0850   -8.3362 N   0  0  0  0  0  0  0  0  0  0  0  0
   25.4898    0.0236   -9.7016 C   0  0  0  0  0  0  0  0  0  0  0  0
   24.2101   -0.0868  -10.3761 C   0  0  0  0  0  0  0  0  0  0  0  0
   24.0060   -0.3052  -11.5709 O   0  0  0  0  0  0  0  0  0  0  0  0
   23.0320    0.0689   -9.6029 O   0  0  0  0  0  0  0  0  0  0  0  0
   21.8053   -0.0945  -10.1796 C   0  0  0  0  0  0  0  0  0  0  0  0
   20.6860    0.5151   -9.6696 C   0  0  0  0  0  0  0  0  0  0  0  0
   19.4352    0.3295  -10.2836 C   0  0  0  0  0  0  0  0  0  0  0  0
   19.3381   -0.4645  -11.3958 C   0  0  0  0  0  0  0  0  0  0  0  0
   20.4494   -1.0803  -11.9166 C   0  0  0  0  0  0  0  0  0  0  0  0
   20.2963   -1.8528  -13.0156 F   0  0  0  0  0  0  0  0  0  0  0  0
   21.6703   -0.8832  -11.2955 C   0  0  0  0  0  0  0  0  0  0  0  0
  1  2  1  6
  2  3  2  0
  2  4  2  0
  2  5  1  1
  5  6  2  0
  6  7  1  0
  7  8  2  0
  8  9  1  0
  9 10  2  0
 10 11  1  0
 11 12  2  0
 11 13  1  0
 13 14  1  0
 14 15  2  0
 15 16  1  0
 16 17  2  0
 17 18  1  0
 18 19  1  0
 18 20  2  0
 10  5  1  0
 20 14  1  0
M  END
$$$$
