_rank14
     RDKit          3D

 20 21  0  0  0  0  0  0  0  0999 V2000
   25.3876   -0.6213   -7.9323 C   0  0  0  0  0  0  0  0  0  0  0  0
   26.9110   -0.1047   -8.6451 S   0  0  2  0  0  6  0  0  0  0  0  0
   27.8934   -1.2578   -8.4144 O   0  0  0  0  0  0  0  0  0  0  0  0
   27.5394    1.0542   -7.9221 O   0  0  0  0  0  0  0  0  0  0  0  0
   26.8247    0.1607  -10.3581 C   0  0  0  0  0  0  0  0  0  0  0  0
   28.0077    0.2842  -11.1140 C   0  0  0  0  0  0  0  0  0  0  0  0
   27.8910    0.4598  -12.4727 C   0  0  0  0  0  0  0  0  0  0  0  0
   26.6721    0.5187  -13.1142 C   0  0  0  0  0  0  0  0  0  0  0  0
   25.5758    0.3970  -12.3535 N   0  0  0  0  0  0  0  0  0  0  0  0
   25.6293    0.2207  -10.9954 C   0  0  0  0  0  0  0  0  0  0  0  0
   24.3902    0.1344  -10.2457 C   0  0  0  0  0  0  0  0  0  0  0  0
   24.1192    0.6796   -9.1752 O   0  0  0  0  0  0  0  0  0  0  0  0
   23.3435   -0.6622  -10.7751 O   0  0  0  0  0  0  0  0  0  0  0  0
   22.0800   -0.5618  -10.2676 C   0  0  0  0  0  0  0  0  0  0  0  0
   21.5046   -1.5927   -9.5671 C   0  0  0  0  0  0  0  0  0  0  0  0
   20.2018   -1.4623   -9.0554 C   0  0  0  0  0  0  0  0  0  0  0  0
   19.5075   -0.2990   -9.2596 C   0  0  0  0  0  0  0  0  0  0  0  0
   20.0709    0.7401   -9.9584 C   0  0  0  0  0  0  0  0  0  0  0  0
   19.3409    1.8650  -10.1303 F   0  0  0  0  0  0  0  0  0  0  0  0
   21.3546    0.5892  -10.4528 C   0  0  0  0  0  0  0  0  0  0  0  0
  1  2  1  6
  2  3  2  0
  2  4  2  0
  2  5  1  6
  5  6  2  0
  6  7  1  0
  7  8  2  0
  8  9  1  0
  9 10  2  0
 10 11  1  0
 11 12  2  0
 11 13  1  0
 13 14  1  0
 14 15  2  0
 15 16  1  0
 16 17  2  0
 17 18  1  0
 18 19  1  0
 18 20  2  0
 10  5  1  0
 20 14  1  0
M  END
$$$$
