_rank15
     RDKit          3D

 20 21  0  0  0  0  0  0  0  0999 V2000
   25.3948   -1.3941   -8.8496 C   0  0  0  0  0  0  0  0  0  0  0  0
   26.8385   -0.4914   -9.2931 S   0  0  2  0  0  6  0  0  0  0  0  0
   27.3669   -1.1492  -10.5722 O   0  0  0  0  0  0  0  0  0  0  0  0
   27.9646   -0.6572   -8.3109 O   0  0  0  0  0  0  0  0  0  0  0  0
   26.5318    1.1763   -9.6630 C   0  0  0  0  0  0  0  0  0  0  0  0
   27.4799    2.1614   -9.3212 C   0  0  0  0  0  0  0  0  0  0  0  0
   27.2096    3.4651   -9.6640 C   0  0  0  0  0  0  0  0  0  0  0  0
   26.0573    3.8386  -10.3226 C   0  0  0  0  0  0  0  0  0  0  0  0
   25.1859    2.8670  -10.6258 N   0  0  0  0  0  0  0  0  0  0  0  0
   25.4003    1.5508  -10.3096 C   0  0  0  0  0  0  0  0  0  0  0  0
   24.3850    0.5702  -10.6448 C   0  0  0  0  0  0  0  0  0  0  0  0
   24.4041   -0.2476  -11.5655 O   0  0  0  0  0  0  0  0  0  0  0  0
   23.2181    0.5156   -9.8413 O   0  0  0  0  0  0  0  0  0  0  0  0
   22.2012   -0.3363  -10.1641 C   0  0  0  0  0  0  0  0  0  0  0  0
   22.3335   -1.6958  -10.0267 C   0  0  0  0  0  0  0  0  0  0  0  0
   21.2700   -2.5498  -10.3666 C   0  0  0  0  0  0  0  0  0  0  0  0
   20.0983   -2.0180  -10.8367 C   0  0  0  0  0  0  0  0  0  0  0  0
   19.9521   -0.6601  -10.9791 C   0  0  0  0  0  0  0  0  0  0  0  0
   18.7744   -0.1895  -11.4474 F   0  0  0  0  0  0  0  0  0  0  0  0
   21.0125    0.1613  -10.6383 C   0  0  0  0  0  0  0  0  0  0  0  0
  1  2  1  6
  2  3  2  0
  2  4  2  0
  2  5  1  6
  5  6  2  0
  6  7  1  0
  7  8  2  0
  8  9  1  0
  9 10  2  0
 10 11  1  0
 11 12  2  0
 11 13  1  0
 13 14  1  0
 14 15  2  0
 15 16  1  0
 16 17  2  0
 17 18  1  0
 18 19  1  0
 18 20  2  0
 10  5  1  0
 20 14  1  0
M  END
$$$$
