_rank4
     RDKit          3D

 20 21  0  0  0  0  0  0  0  0999 V2000
   26.3810   -0.0542  -13.4223 C   0  0  0  0  0  0  0  0  0  0  0  0
   26.8271    0.9293  -12.0332 S   0  0  2  0  0  6  0  0  0  0  0  0
   25.7001    1.9542  -11.8668 O   0  0  0  0  0  0  0  0  0  0  0  0
   28.0485    1.7725  -12.2734 O   0  0  0  0  0  0  0  0  0  0  0  0
   26.9299    0.0346  -10.5496 C   0  0  0  0  0  0  0  0  0  0  0  0
   28.1663   -0.0910   -9.8849 C   0  0  0  0  0  0  0  0  0  0  0  0
   28.1935   -0.7801   -8.6955 C   0  0  0  0  0  0  0  0  0  0  0  0
   27.0673   -1.3460   -8.1366 C   0  0  0  0  0  0  0  0  0  0  0  0
   25.9155   -1.2008   -8.8055 N   0  0  0  0  0  0  0  0  0  0  0  0
   25.8266   -0.5255   -9.9948 C   0  0  0  0  0  0  0  0  0  0  0  0
   24.5440   -0.4485  -10.6684 C   0  0  0  0  0  0  0  0  0  0  0  0
   24.2836   -0.7671  -11.8291 O   0  0  0  0  0  0  0  0  0  0  0  0
   23.4347    0.0470   -9.9375 O   0  0  0  0  0  0  0  0  0  0  0  0
   22.1723   -0.3840  -10.2290 C   0  0  0  0  0  0  0  0  0  0  0  0
   21.7866   -1.6813   -9.9997 C   0  0  0  0  0  0  0  0  0  0  0  0
   20.4803   -2.0981  -10.3092 C   0  0  0  0  0  0  0  0  0  0  0  0
   19.5919   -1.2015  -10.8420 C   0  0  0  0  0  0  0  0  0  0  0  0
   19.9643    0.0991  -11.0766 C   0  0  0  0  0  0  0  0  0  0  0  0
   19.0476    0.9414  -11.6038 F   0  0  0  0  0  0  0  0  0  0  0  0
   21.2555    0.4870  -10.7640 C   0  0  0  0  0  0  0  0  0  0  0  0
  1  2  1  6
  2  3  2  0
  2  4  2  0
  2  5  1  1
  5  6  2  0
  6  7  1  0
  7  8  2  0
  8  9  1  0
  9 10  2  0
 10 11  1  0
 11 12  2  0
 11 13  1  0
 13 14  1  0
 14 15  2  0
 15 16  1  0
 16 17  2  0
 17 18  1  0
 18 19  1  0
 18 20  2  0
 10  5  1  0
 20 14  1  0
M  END
$$$$
