_rank12
     RDKit          3D

 20 21  0  0  0  0  0  0  0  0999 V2000
   26.6444    1.1972   -7.9866 C   0  0  0  0  0  0  0  0  0  0  0  0
   27.0697   -0.2377   -8.9119 S   0  0  2  0  0  6  0  0  0  0  0  0
   26.1108   -1.3372   -8.4433 O   0  0  0  0  0  0  0  0  0  0  0  0
   28.4311   -0.7781   -8.5726 O   0  0  0  0  0  0  0  0  0  0  0  0
   26.8447   -0.0559  -10.6231 C   0  0  0  0  0  0  0  0  0  0  0  0
   27.9604    0.1058  -11.4688 C   0  0  0  0  0  0  0  0  0  0  0  0
   27.7362    0.2122  -12.8212 C   0  0  0  0  0  0  0  0  0  0  0  0
   26.4734    0.1671  -13.3727 C   0  0  0  0  0  0  0  0  0  0  0  0
   25.4443    0.0128  -12.5287 N   0  0  0  0  0  0  0  0  0  0  0  0
   25.6056   -0.0982  -11.1722 C   0  0  0  0  0  0  0  0  0  0  0  0
   24.4312   -0.2265  -10.3302 C   0  0  0  0  0  0  0  0  0  0  0  0
   24.2593    0.2390   -9.2030 O   0  0  0  0  0  0  0  0  0  0  0  0
   23.3301   -0.9680  -10.8282 O   0  0  0  0  0  0  0  0  0  0  0  0
   22.0585   -0.6491  -10.4470 C   0  0  0  0  0  0  0  0  0  0  0  0
   21.5656   -1.0123   -9.2183 C   0  0  0  0  0  0  0  0  0  0  0  0
   20.2523   -0.6707   -8.8517 C   0  0  0  0  0  0  0  0  0  0  0  0
   19.4647    0.0280   -9.7283 C   0  0  0  0  0  0  0  0  0  0  0  0
   19.9447    0.3977  -10.9604 C   0  0  0  0  0  0  0  0  0  0  0  0
   19.1245    1.0860  -11.7859 F   0  0  0  0  0  0  0  0  0  0  0  0
   21.2407    0.0505  -11.2998 C   0  0  0  0  0  0  0  0  0  0  0  0
  1  2  1  6
  2  3  2  0
  2  4  2  0
  2  5  1  6
  5  6  2  0
  6  7  1  0
  7  8  2  0
  8  9  1  0
  9 10  2  0
 10 11  1  0
 11 12  2  0
 11 13  1  0
 13 14  1  0
 14 15  2  0
 15 16  1  0
 16 17  2  0
 17 18  1  0
 18 19  1  0
 18 20  2  0
 10  5  1  0
 20 14  1  0
M  END
$$$$
