_rank19
     RDKit          3D

 20 21  0  0  0  0  0  0  0  0999 V2000
   25.6531    1.4704  -10.8647 C   0  0  0  0  0  0  0  0  0  0  0  0
   26.0159    0.0382   -9.9092 S   0  0  2  0  0  6  0  0  0  0  0  0
   25.1672    0.1566   -8.6388 O   0  0  0  0  0  0  0  0  0  0  0  0
   27.4293    0.0112   -9.3972 O   0  0  0  0  0  0  0  0  0  0  0  0
   25.5718   -1.4490  -10.6860 C   0  0  0  0  0  0  0  0  0  0  0  0
   26.5560   -2.2398  -11.3122 C   0  0  0  0  0  0  0  0  0  0  0  0
   26.1633   -3.4263  -11.8853 C   0  0  0  0  0  0  0  0  0  0  0  0
   24.8562   -3.8647  -11.8692 C   0  0  0  0  0  0  0  0  0  0  0  0
   23.9565   -3.0784  -11.2628 N   0  0  0  0  0  0  0  0  0  0  0  0
   24.2881   -1.8856  -10.6749 C   0  0  0  0  0  0  0  0  0  0  0  0
   23.2421   -1.0812  -10.0720 C   0  0  0  0  0  0  0  0  0  0  0  0
   23.3747   -0.0743   -9.3754 O   0  0  0  0  0  0  0  0  0  0  0  0
   21.8949   -1.4675  -10.2871 O   0  0  0  0  0  0  0  0  0  0  0  0
   20.9066   -0.5259  -10.3153 C   0  0  0  0  0  0  0  0  0  0  0  0
   20.3592   -0.0959  -11.4986 C   0  0  0  0  0  0  0  0  0  0  0  0
   19.3426    0.8749  -11.4984 C   0  0  0  0  0  0  0  0  0  0  0  0
   18.8996    1.3910  -10.3092 C   0  0  0  0  0  0  0  0  0  0  0  0
   19.4381    0.9701   -9.1183 C   0  0  0  0  0  0  0  0  0  0  0  0
   18.9634    1.5129   -7.9747 F   0  0  0  0  0  0  0  0  0  0  0  0
   20.4379    0.0135   -9.1428 C   0  0  0  0  0  0  0  0  0  0  0  0
  1  2  1  6
  2  3  2  0
  2  4  2  0
  2  5  1  6
  5  6  2  0
  6  7  1  0
  7  8  2  0
  8  9  1  0
  9 10  2  0
 10 11  1  0
 11 12  2  0
 11 13  1  0
 13 14  1  0
 14 15  2  0
 15 16  1  0
 16 17  2  0
 17 18  1  0
 18 19  1  0
 18 20  2  0
 10  5  1  0
 20 14  1  0
M  END
$$$$
