_rank7
     RDKit          3D

 20 21  0  0  0  0  0  0  0  0999 V2000
   28.4279    0.9289  -12.8732 C   0  0  0  0  0  0  0  0  0  0  0  0
   26.8013    0.5226  -12.3397 S   0  0  2  0  0  6  0  0  0  0  0  0
   26.4539   -0.8021  -13.0271 O   0  0  0  0  0  0  0  0  0  0  0  0
   25.7565    1.4770  -12.8478 O   0  0  0  0  0  0  0  0  0  0  0  0
   26.6735    0.2615  -10.6286 C   0  0  0  0  0  0  0  0  0  0  0  0
   27.8349    0.2254   -9.8311 C   0  0  0  0  0  0  0  0  0  0  0  0
   27.6831    0.0498   -8.4760 C   0  0  0  0  0  0  0  0  0  0  0  0
   26.4495   -0.0907   -7.8766 C   0  0  0  0  0  0  0  0  0  0  0  0
   25.3748   -0.0503   -8.6759 N   0  0  0  0  0  0  0  0  0  0  0  0
   25.4636    0.1215  -10.0327 C   0  0  0  0  0  0  0  0  0  0  0  0
   24.2486    0.1167  -10.8255 C   0  0  0  0  0  0  0  0  0  0  0  0
   24.1134   -0.2533  -11.9924 O   0  0  0  0  0  0  0  0  0  0  0  0
   23.0549    0.5858  -10.2211 O   0  0  0  0  0  0  0  0  0  0  0  0
   21.8646   -0.0293  -10.4835 C   0  0  0  0  0  0  0  0  0  0  0  0
   21.7949   -1.1492  -11.2744 C   0  0  0  0  0  0  0  0  0  0  0  0
   20.5557   -1.7624  -11.5280 C   0  0  0  0  0  0  0  0  0  0  0  0
   19.4153   -1.2361  -10.9811 C   0  0  0  0  0  0  0  0  0  0  0  0
   19.4703   -0.1164  -10.1881 C   0  0  0  0  0  0  0  0  0  0  0  0
   18.3143    0.3605   -9.6742 F   0  0  0  0  0  0  0  0  0  0  0  0
   20.7012    0.4704   -9.9521 C   0  0  0  0  0  0  0  0  0  0  0  0
  1  2  1  6
  2  3  2  0
  2  4  2  0
  2  5  1  1
  5  6  2  0
  6  7  1  0
  7  8  2  0
  8  9  1  0
  9 10  2  0
 10 11  1  0
 11 12  2  0
 11 13  1  0
 13 14  1  0
 14 15  2  0
 15 16  1  0
 16 17  2  0
 17 18  1  0
 18 19  1  0
 18 20  2  0
 10  5  1  0
 20 14  1  0
M  END
$$$$
