_rank20
     RDKit          3D

 20 21  0  0  0  0  0  0  0  0999 V2000
   21.7333   -2.6384  -11.9320 C   0  0  0  0  0  0  0  0  0  0  0  0
   21.3266   -0.9437  -12.1738 S   0  0  2  0  0  6  0  0  0  0  0  0
   20.2310   -0.9249  -13.2449 O   0  0  0  0  0  0  0  0  0  0  0  0
   22.4452   -0.1489  -12.7883 O   0  0  0  0  0  0  0  0  0  0  0  0
   20.6757   -0.1745  -10.7607 C   0  0  0  0  0  0  0  0  0  0  0  0
   19.4057    0.4345  -10.8099 C   0  0  0  0  0  0  0  0  0  0  0  0
   18.9160    1.0020   -9.6573 C   0  0  0  0  0  0  0  0  0  0  0  0
   19.6152    0.9965   -8.4690 C   0  0  0  0  0  0  0  0  0  0  0  0
   20.8181    0.4063   -8.4717 N   0  0  0  0  0  0  0  0  0  0  0  0
   21.3583   -0.1752   -9.5891 C   0  0  0  0  0  0  0  0  0  0  0  0
   22.6836   -0.7600   -9.5095 C   0  0  0  0  0  0  0  0  0  0  0  0
   23.0195   -1.7834   -8.9125 O   0  0  0  0  0  0  0  0  0  0  0  0
   23.7440   -0.1054  -10.1857 O   0  0  0  0  0  0  0  0  0  0  0  0
   25.0119   -0.1505   -9.6812 C   0  0  0  0  0  0  0  0  0  0  0  0
   25.4871    0.8308   -8.8470 C   0  0  0  0  0  0  0  0  0  0  0  0
   26.7970    0.7593   -8.3419 C   0  0  0  0  0  0  0  0  0  0  0  0
   27.5989   -0.2966   -8.6867 C   0  0  0  0  0  0  0  0  0  0  0  0
   27.1365   -1.2851   -9.5201 C   0  0  0  0  0  0  0  0  0  0  0  0
   27.9703   -2.3040   -9.8275 F   0  0  0  0  0  0  0  0  0  0  0  0
   25.8436   -1.1938  -10.0053 C   0  0  0  0  0  0  0  0  0  0  0  0
  1  2  1  6
  2  3  2  0
  2  4  2  0
  2  5  1  1
  5  6  2  0
  6  7  1  0
  7  8  2  0
  8  9  1  0
  9 10  2  0
 10 11  1  0
 11 12  2  0
 11 13  1  0
 13 14  1  0
 14 15  2  0
 15 16  1  0
 16 17  2  0
 17 18  1  0
 18 19  1  0
 18 20  2  0
 10  5  1  0
 20 14  1  0
M  END
$$$$
