_rank5
     RDKit          3D

 20 21  0  0  0  0  0  0  0  0999 V2000
   25.1057    2.1600  -12.0399 C   0  0  0  0  0  0  0  0  0  0  0  0
   26.1946    0.7796  -12.1076 S   0  0  2  0  0  6  0  0  0  0  0  0
   27.5374    1.3296  -12.6002 O   0  0  0  0  0  0  0  0  0  0  0  0
   25.8102   -0.2259  -13.1572 O   0  0  0  0  0  0  0  0  0  0  0  0
   26.4787    0.0393  -10.5638 C   0  0  0  0  0  0  0  0  0  0  0  0
   27.7781    0.0198  -10.0184 C   0  0  0  0  0  0  0  0  0  0  0  0
   27.9498   -0.5474   -8.7778 C   0  0  0  0  0  0  0  0  0  0  0  0
   26.9081   -1.0915   -8.0569 C   0  0  0  0  0  0  0  0  0  0  0  0
   25.6915   -1.0501   -8.6169 N   0  0  0  0  0  0  0  0  0  0  0  0
   25.4591   -0.4986   -9.8499 C   0  0  0  0  0  0  0  0  0  0  0  0
   24.1149   -0.5297  -10.3947 C   0  0  0  0  0  0  0  0  0  0  0  0
   23.7743   -0.3644  -11.5667 O   0  0  0  0  0  0  0  0  0  0  0  0
   23.0392   -0.7766   -9.5048 O   0  0  0  0  0  0  0  0  0  0  0  0
   21.7536   -0.7765   -9.9646 C   0  0  0  0  0  0  0  0  0  0  0  0
   21.1285   -1.9373  -10.3471 C   0  0  0  0  0  0  0  0  0  0  0  0
   19.8040   -1.9081  -10.8168 C   0  0  0  0  0  0  0  0  0  0  0  0
   19.1382   -0.7131  -10.8912 C   0  0  0  0  0  0  0  0  0  0  0  0
   19.7511    0.4556  -10.5119 C   0  0  0  0  0  0  0  0  0  0  0  0
   19.0475    1.6062  -10.6059 F   0  0  0  0  0  0  0  0  0  0  0  0
   21.0556    0.4027  -10.0527 C   0  0  0  0  0  0  0  0  0  0  0  0
  1  2  1  6
  2  3  2  0
  2  4  2  0
  2  5  1  1
  5  6  2  0
  6  7  1  0
  7  8  2  0
  8  9  1  0
  9 10  2  0
 10 11  1  0
 11 12  2  0
 11 13  1  0
 13 14  1  0
 14 15  2  0
 15 16  1  0
 16 17  2  0
 17 18  1  0
 18 19  1  0
 18 20  2  0
 10  5  1  0
 20 14  1  0
M  END
$$$$
