_rank11
     RDKit          3D

 20 21  0  0  0  0  0  0  0  0999 V2000
   25.8872    2.6103  -12.1388 C   0  0  0  0  0  0  0  0  0  0  0  0
   26.4701    0.9503  -12.1316 S   0  0  2  0  0  6  0  0  0  0  0  0
   27.8503    0.9885  -12.7962 O   0  0  0  0  0  0  0  0  0  0  0  0
   25.6684    0.0381  -13.0180 O   0  0  0  0  0  0  0  0  0  0  0  0
   26.6854    0.2939  -10.5395 C   0  0  0  0  0  0  0  0  0  0  0  0
   27.9755    0.2110   -9.9783 C   0  0  0  0  0  0  0  0  0  0  0  0
   28.0942   -0.2846   -8.7013 C   0  0  0  0  0  0  0  0  0  0  0  0
   27.0086   -0.6985   -7.9591 C   0  0  0  0  0  0  0  0  0  0  0  0
   25.8028   -0.6012   -8.5352 N   0  0  0  0  0  0  0  0  0  0  0  0
   25.6224   -0.1161   -9.8043 C   0  0  0  0  0  0  0  0  0  0  0  0
   24.2836   -0.0801  -10.3621 C   0  0  0  0  0  0  0  0  0  0  0  0
   23.8344    0.7145  -11.1890 O   0  0  0  0  0  0  0  0  0  0  0  0
   23.3533   -1.0586   -9.9294 O   0  0  0  0  0  0  0  0  0  0  0  0
   22.0625   -1.0228  -10.3731 C   0  0  0  0  0  0  0  0  0  0  0  0
   21.2859   -2.1541  -10.4120 C   0  0  0  0  0  0  0  0  0  0  0  0
   19.9598   -2.0885  -10.8735 C   0  0  0  0  0  0  0  0  0  0  0  0
   19.4448   -0.8877  -11.2854 C   0  0  0  0  0  0  0  0  0  0  0  0
   20.2104    0.2518  -11.2519 C   0  0  0  0  0  0  0  0  0  0  0  0
   19.6518    1.4098  -11.6700 F   0  0  0  0  0  0  0  0  0  0  0  0
   21.5132    0.1633  -10.7936 C   0  0  0  0  0  0  0  0  0  0  0  0
  1  2  1  6
  2  3  2  0
  2  4  2  0
  2  5  1  1
  5  6  2  0
  6  7  1  0
  7  8  2  0
  8  9  1  0
  9 10  2  0
 10 11  1  0
 11 12  2  0
 11 13  1  0
 13 14  1  0
 14 15  2  0
 15 16  1  0
 16 17  2  0
 17 18  1  0
 18 19  1  0
 18 20  2  0
 10  5  1  0
 20 14  1  0
M  END
$$$$
