_rank16
     RDKit          3D

 20 21  0  0  0  0  0  0  0  0999 V2000
   27.1732   -1.6158  -12.2717 C   0  0  0  0  0  0  0  0  0  0  0  0
   27.1741    0.0561  -11.7236 S   0  0  2  0  0  6  0  0  0  0  0  0
   25.9935    0.7293  -12.4316 O   0  0  0  0  0  0  0  0  0  0  0  0
   28.3701    0.8336  -12.1986 O   0  0  0  0  0  0  0  0  0  0  0  0
   26.9152    0.2303  -10.0163 C   0  0  0  0  0  0  0  0  0  0  0  0
   27.9695    0.6522   -9.1816 C   0  0  0  0  0  0  0  0  0  0  0  0
   27.7092    0.8086   -7.8407 C   0  0  0  0  0  0  0  0  0  0  0  0
   26.4678    0.5701   -7.2901 C   0  0  0  0  0  0  0  0  0  0  0  0
   25.4976    0.1702   -8.1232 N   0  0  0  0  0  0  0  0  0  0  0  0
   25.6973   -0.0036   -9.4679 C   0  0  0  0  0  0  0  0  0  0  0  0
   24.5981   -0.4743  -10.2895 C   0  0  0  0  0  0  0  0  0  0  0  0
   24.6132   -0.7225  -11.4957 O   0  0  0  0  0  0  0  0  0  0  0  0
   23.3419   -0.6856   -9.6669 O   0  0  0  0  0  0  0  0  0  0  0  0
   22.2144   -0.8233  -10.4245 C   0  0  0  0  0  0  0  0  0  0  0  0
   21.0102   -1.1672   -9.8624 C   0  0  0  0  0  0  0  0  0  0  0  0
   19.8649   -1.3021  -10.6662 C   0  0  0  0  0  0  0  0  0  0  0  0
   19.9563   -1.0882  -12.0163 C   0  0  0  0  0  0  0  0  0  0  0  0
   21.1544   -0.7436  -12.5918 C   0  0  0  0  0  0  0  0  0  0  0  0
   21.1876   -0.5443  -13.9286 F   0  0  0  0  0  0  0  0  0  0  0  0
   22.2686   -0.6165  -11.7809 C   0  0  0  0  0  0  0  0  0  0  0  0
  1  2  1  6
  2  3  2  0
  2  4  2  0
  2  5  1  1
  5  6  2  0
  6  7  1  0
  7  8  2  0
  8  9  1  0
  9 10  2  0
 10 11  1  0
 11 12  2  0
 11 13  1  0
 13 14  1  0
 14 15  2  0
 15 16  1  0
 16 17  2  0
 17 18  1  0
 18 19  1  0
 18 20  2  0
 10  5  1  0
 20 14  1  0
M  END
$$$$
