_rank13
     RDKit          3D

 20 21  0  0  0  0  0  0  0  0999 V2000
   27.7980    0.4430  -13.4994 C   0  0  0  0  0  0  0  0  0  0  0  0
   26.4091    0.7462  -12.4627 S   0  0  2  0  0  6  0  0  0  0  0  0
   25.2509   -0.0520  -13.0705 O   0  0  0  0  0  0  0  0  0  0  0  0
   25.9316    2.1710  -12.5155 O   0  0  0  0  0  0  0  0  0  0  0  0
   26.6194    0.1856  -10.8338 C   0  0  0  0  0  0  0  0  0  0  0  0
   27.9065    0.1458  -10.2612 C   0  0  0  0  0  0  0  0  0  0  0  0
   28.0209   -0.2735   -8.9568 C   0  0  0  0  0  0  0  0  0  0  0  0
   26.9338   -0.6520   -8.1980 C   0  0  0  0  0  0  0  0  0  0  0  0
   25.7310   -0.5980   -8.7859 N   0  0  0  0  0  0  0  0  0  0  0  0
   25.5548   -0.1892  -10.0821 C   0  0  0  0  0  0  0  0  0  0  0  0
   24.2194   -0.1964  -10.6489 C   0  0  0  0  0  0  0  0  0  0  0  0
   23.9034   -0.0588  -11.8312 O   0  0  0  0  0  0  0  0  0  0  0  0
   23.1220   -0.3808   -9.7703 O   0  0  0  0  0  0  0  0  0  0  0  0
   21.8506   -0.4459  -10.2636 C   0  0  0  0  0  0  0  0  0  0  0  0
   20.8031    0.1762   -9.6309 C   0  0  0  0  0  0  0  0  0  0  0  0
   19.5039    0.0928  -10.1611 C   0  0  0  0  0  0  0  0  0  0  0  0
   19.2873   -0.6138  -11.3146 C   0  0  0  0  0  0  0  0  0  0  0  0
   20.3258   -1.2409  -11.9578 C   0  0  0  0  0  0  0  0  0  0  0  0
   20.0555   -1.9245  -13.0925 F   0  0  0  0  0  0  0  0  0  0  0  0
   21.5964   -1.1452  -11.4176 C   0  0  0  0  0  0  0  0  0  0  0  0
  1  2  1  6
  2  3  2  0
  2  4  2  0
  2  5  1  1
  5  6  2  0
  6  7  1  0
  7  8  2  0
  8  9  1  0
  9 10  2  0
 10 11  1  0
 11 12  2  0
 11 13  1  0
 13 14  1  0
 14 15  2  0
 15 16  1  0
 16 17  2  0
 17 18  1  0
 18 19  1  0
 18 20  2  0
 10  5  1  0
 20 14  1  0
M  END
$$$$
