_rank18
     RDKit          3D

 20 21  0  0  0  0  0  0  0  0999 V2000
   25.9078    1.5234   -8.0563 C   0  0  0  0  0  0  0  0  0  0  0  0
   26.9870    0.8596   -9.2772 S   0  0  2  0  0  6  0  0  0  0  0  0
   28.4019    1.2631   -8.8490 O   0  0  0  0  0  0  0  0  0  0  0  0
   26.8212    1.5031  -10.6259 O   0  0  0  0  0  0  0  0  0  0  0  0
   26.9535   -0.8732   -9.3694 C   0  0  0  0  0  0  0  0  0  0  0  0
   28.1231   -1.6167   -9.1139 C   0  0  0  0  0  0  0  0  0  0  0  0
   28.0412   -2.9882   -9.1654 C   0  0  0  0  0  0  0  0  0  0  0  0
   26.8692   -3.6541   -9.4548 C   0  0  0  0  0  0  0  0  0  0  0  0
   25.7841   -2.9044   -9.6912 N   0  0  0  0  0  0  0  0  0  0  0  0
   25.8046   -1.5346   -9.6546 C   0  0  0  0  0  0  0  0  0  0  0  0
   24.5898   -0.8023   -9.9592 C   0  0  0  0  0  0  0  0  0  0  0  0
   24.4430    0.4190  -10.0203 O   0  0  0  0  0  0  0  0  0  0  0  0
   23.4111   -1.5446  -10.2234 O   0  0  0  0  0  0  0  0  0  0  0  0
   22.2036   -0.9119  -10.3001 C   0  0  0  0  0  0  0  0  0  0  0  0
   21.8119    0.0029   -9.3544 C   0  0  0  0  0  0  0  0  0  0  0  0
   20.5630    0.6395   -9.4580 C   0  0  0  0  0  0  0  0  0  0  0  0
   19.7366    0.3423  -10.5094 C   0  0  0  0  0  0  0  0  0  0  0  0
   20.1156   -0.5707  -11.4624 C   0  0  0  0  0  0  0  0  0  0  0  0
   19.2612   -0.8262  -12.4786 F   0  0  0  0  0  0  0  0  0  0  0  0
   21.3496   -1.1851  -11.3400 C   0  0  0  0  0  0  0  0  0  0  0  0
  1  2  1  6
  2  3  2  0
  2  4  2  0
  2  5  1  6
  5  6  2  0
  6  7  1  0
  7  8  2  0
  8  9  1  0
  9 10  2  0
 10 11  1  0
 11 12  2  0
 11 13  1  0
 13 14  1  0
 14 15  2  0
 15 16  1  0
 16 17  2  0
 17 18  1  0
 18 19  1  0
 18 20  2  0
 10  5  1  0
 20 14  1  0
M  END
$$$$
