_rank8
     RDKit          3D

 20 21  0  0  0  0  0  0  0  0999 V2000
   26.5286   -0.8803  -13.2656 C   0  0  0  0  0  0  0  0  0  0  0  0
   26.5382    0.5767  -12.2793 S   0  0  2  0  0  6  0  0  0  0  0  0
   25.1495    1.2031  -12.4444 O   0  0  0  0  0  0  0  0  0  0  0  0
   27.4742    1.6341  -12.7954 O   0  0  0  0  0  0  0  0  0  0  0  0
   26.7649    0.2708  -10.5860 C   0  0  0  0  0  0  0  0  0  0  0  0
   28.0479    0.3826  -10.0138 C   0  0  0  0  0  0  0  0  0  0  0  0
   28.1740    0.1641   -8.6622 C   0  0  0  0  0  0  0  0  0  0  0  0
   27.1023   -0.1568   -7.8563 C   0  0  0  0  0  0  0  0  0  0  0  0
   25.9029   -0.2524   -8.4458 N   0  0  0  0  0  0  0  0  0  0  0  0
   25.7156   -0.0463   -9.7878 C   0  0  0  0  0  0  0  0  0  0  0  0
   24.3868   -0.2063  -10.3475 C   0  0  0  0  0  0  0  0  0  0  0  0
   24.0890   -0.5583  -11.4895 O   0  0  0  0  0  0  0  0  0  0  0  0
   23.2734    0.0652   -9.5127 O   0  0  0  0  0  0  0  0  0  0  0  0
   22.0042   -0.1407   -9.9719 C   0  0  0  0  0  0  0  0  0  0  0  0
   20.9194    0.4463   -9.3693 C   0  0  0  0  0  0  0  0  0  0  0  0
   19.6234    0.2170   -9.8632 C   0  0  0  0  0  0  0  0  0  0  0  0
   19.4476   -0.5970  -10.9510 C   0  0  0  0  0  0  0  0  0  0  0  0
   20.5237   -1.1906  -11.5635 C   0  0  0  0  0  0  0  0  0  0  0  0
   20.2927   -1.9844  -12.6333 F   0  0  0  0  0  0  0  0  0  0  0  0
   21.7902   -0.9505  -11.0600 C   0  0  0  0  0  0  0  0  0  0  0  0
  1  2  1  6
  2  3  2  0
  2  4  2  0
  2  5  1  1
  5  6  2  0
  6  7  1  0
  7  8  2  0
  8  9  1  0
  9 10  2  0
 10 11  1  0
 11 12  2  0
 11 13  1  0
 13 14  1  0
 14 15  2  0
 15 16  1  0
 16 17  2  0
 17 18  1  0
 18 19  1  0
 18 20  2  0
 10  5  1  0
 20 14  1  0
M  END
$$$$
