_rank2
     RDKit          3D

 20 21  0  0  0  0  0  0  0  0999 V2000
   25.2722    1.7372  -12.5823 C   0  0  0  0  0  0  0  0  0  0  0  0
   26.3631    0.3852  -12.3038 S   0  0  2  0  0  6  0  0  0  0  0  0
   27.7304    0.8356  -12.8289 O   0  0  0  0  0  0  0  0  0  0  0  0
   26.0356   -0.8210  -13.1396 O   0  0  0  0  0  0  0  0  0  0  0  0
   26.5640   -0.0146  -10.6269 C   0  0  0  0  0  0  0  0  0  0  0  0
   27.8564   -0.1024  -10.0718 C   0  0  0  0  0  0  0  0  0  0  0  0
   27.9659   -0.3886   -8.7314 C   0  0  0  0  0  0  0  0  0  0  0  0
   26.8691   -0.5904   -7.9208 C   0  0  0  0  0  0  0  0  0  0  0  0
   25.6616   -0.4973   -8.4939 N   0  0  0  0  0  0  0  0  0  0  0  0
   25.4898   -0.2154   -9.8241 C   0  0  0  0  0  0  0  0  0  0  0  0
   24.1455   -0.1694  -10.3678 C   0  0  0  0  0  0  0  0  0  0  0  0
   23.7784    0.3480  -11.4233 O   0  0  0  0  0  0  0  0  0  0  0  0
   23.1038   -0.7813   -9.6258 O   0  0  0  0  0  0  0  0  0  0  0  0
   21.8163   -0.7283  -10.0772 C   0  0  0  0  0  0  0  0  0  0  0  0
   21.1225    0.4551  -10.1287 C   0  0  0  0  0  0  0  0  0  0  0  0
   19.7978    0.4807  -10.5980 C   0  0  0  0  0  0  0  0  0  0  0  0
   19.2009   -0.6834  -11.0047 C   0  0  0  0  0  0  0  0  0  0  0  0
   19.8830   -1.8741  -10.9586 C   0  0  0  0  0  0  0  0  0  0  0  0
   19.2457   -2.9925  -11.3721 F   0  0  0  0  0  0  0  0  0  0  0  0
   21.1863   -1.8753  -10.4929 C   0  0  0  0  0  0  0  0  0  0  0  0
  1  2  1  6
  2  3  2  0
  2  4  2  0
  2  5  1  1
  5  6  2  0
  6  7  1  0
  7  8  2  0
  8  9  1  0
  9 10  2  0
 10 11  1  0
 11 12  2  0
 11 13  1  0
 13 14  1  0
 14 15  2  0
 15 16  1  0
 16 17  2  0
 17 18  1  0
 18 19  1  0
 18 20  2  0
 10  5  1  0
 20 14  1  0
M  END
$$$$
