_rank14
     RDKit          3D

 18 19  0  0  0  0  0  0  0  0999 V2000
   22.5342   -3.9955  -10.0397 N   0  0  0  0  0  0  0  0  0  0  0  0
   23.0623   -2.9748  -10.0132 C   0  0  0  0  0  0  0  0  0  0  0  0
   23.7350   -1.7136   -9.9639 C   0  0  0  0  0  0  0  0  0  0  0  0
   24.9293   -1.6369   -9.2859 C   0  0  0  0  0  0  0  0  0  0  0  0
   25.5843   -0.4268   -9.2331 C   0  0  0  0  0  0  0  0  0  0  0  0
   26.8701   -0.3211   -8.5094 C   0  0  0  0  0  0  0  0  0  0  0  0
   27.9497   -0.4981   -9.3770 O   0  0  0  0  0  0  0  0  0  0  0  0
   25.0384    0.6779   -9.8542 C   0  0  0  0  0  0  0  0  0  0  0  0
   23.8257    0.5608  -10.5319 C   0  0  0  0  0  0  0  0  0  0  0  0
   23.1549   -0.6404  -10.5965 C   0  0  0  0  0  0  0  0  0  0  0  0
   21.9536   -0.7003  -11.2832 O   0  0  0  0  0  0  0  0  0  0  0  0
   20.7817   -0.1533  -10.8517 C   0  0  0  0  0  0  0  0  0  0  0  0
   20.7396    1.0119  -10.1227 C   0  0  0  0  0  0  0  0  0  0  0  0
   19.5476    1.5369   -9.7032 N   0  0  0  0  0  0  0  0  0  0  0  0
   18.3708    0.9497   -9.9776 C   0  0  0  0  0  0  0  0  0  0  0  0
   18.3753   -0.2183  -10.7054 C   0  0  0  0  0  0  0  0  0  0  0  0
   17.2105   -0.8710  -11.0214 F   0  0  0  0  0  0  0  0  0  0  0  0
   19.5826   -0.7617  -11.1375 C   0  0  0  0  0  0  0  0  0  0  0  0
  1  2  3  0
  2  3  1  0
  3  4  2  0
  4  5  1  0
  5  6  1  0
  6  7  1  1
  5  8  2  0
  8  9  1  0
  9 10  2  0
 10 11  1  0
 11 12  1  0
 12 13  2  0
 13 14  1  0
 14 15  2  0
 15 16  1  0
 16 17  1  0
 16 18  2  0
 10  3  1  0
 18 12  1  0
M  END
$$$$
