_rank20
     RDKit          3D

 18 19  0  0  0  0  0  0  0  0999 V2000
   23.0976   -1.5584  -14.2579 N   0  0  0  0  0  0  0  0  0  0  0  0
   22.7557   -1.3951  -13.1726 C   0  0  0  0  0  0  0  0  0  0  0  0
   22.3371   -1.1687  -11.8239 C   0  0  0  0  0  0  0  0  0  0  0  0
   20.9887   -1.1523  -11.5531 C   0  0  0  0  0  0  0  0  0  0  0  0
   20.5761   -0.9350  -10.2573 C   0  0  0  0  0  0  0  0  0  0  0  0
   19.1308   -0.9132   -9.9431 C   0  0  0  0  0  0  0  0  0  0  0  0
   18.5730   -2.1879  -10.0603 O   0  0  0  0  0  0  0  0  0  0  0  0
   21.5115   -0.7394   -9.2619 C   0  0  0  0  0  0  0  0  0  0  0  0
   22.8696   -0.7630   -9.5754 C   0  0  0  0  0  0  0  0  0  0  0  0
   23.3030   -0.9787  -10.8649 C   0  0  0  0  0  0  0  0  0  0  0  0
   24.6641   -0.9922  -11.1204 O   0  0  0  0  0  0  0  0  0  0  0  0
   25.6228   -0.5494  -10.2581 C   0  0  0  0  0  0  0  0  0  0  0  0
   25.7760    0.7822   -9.9510 C   0  0  0  0  0  0  0  0  0  0  0  0
   26.7479    1.1966   -9.0815 N   0  0  0  0  0  0  0  0  0  0  0  0
   27.5928    0.3360   -8.4895 C   0  0  0  0  0  0  0  0  0  0  0  0
   27.4683   -1.0047   -8.7738 C   0  0  0  0  0  0  0  0  0  0  0  0
   28.2972   -1.9386   -8.2050 F   0  0  0  0  0  0  0  0  0  0  0  0
   26.4827   -1.4378   -9.6573 C   0  0  0  0  0  0  0  0  0  0  0  0
  1  2  3  0
  2  3  1  0
  3  4  2  0
  4  5  1  0
  5  6  1  0
  6  7  1  1
  5  8  2  0
  8  9  1  0
  9 10  2  0
 10 11  1  0
 11 12  1  0
 12 13  2  0
 13 14  1  0
 14 15  2  0
 15 16  1  0
 16 17  1  0
 16 18  2  0
 10  3  1  0
 18 12  1  0
M  END
$$$$
