_rank2
     RDKit          3D

 18 19  0  0  0  0  0  0  0  0999 V2000
   26.0608    0.2679  -13.5134 N   0  0  0  0  0  0  0  0  0  0  0  0
   25.8938    0.0555  -12.3961 C   0  0  0  0  0  0  0  0  0  0  0  0
   25.7081   -0.2001  -11.0012 C   0  0  0  0  0  0  0  0  0  0  0  0
   26.7982   -0.0997  -10.1684 C   0  0  0  0  0  0  0  0  0  0  0  0
   26.6290   -0.3440   -8.8238 C   0  0  0  0  0  0  0  0  0  0  0  0
   27.7876   -0.2418   -7.9097 C   0  0  0  0  0  0  0  0  0  0  0  0
   28.5966    0.8456   -8.2454 O   0  0  0  0  0  0  0  0  0  0  0  0
   25.3825   -0.6821   -8.3382 C   0  0  0  0  0  0  0  0  0  0  0  0
   24.3014   -0.7740   -9.2135 C   0  0  0  0  0  0  0  0  0  0  0  0
   24.4494   -0.5336  -10.5616 C   0  0  0  0  0  0  0  0  0  0  0  0
   23.3416   -0.6390  -11.3861 O   0  0  0  0  0  0  0  0  0  0  0  0
   22.0636   -0.8326  -10.9526 C   0  0  0  0  0  0  0  0  0  0  0  0
   21.4497   -2.0620  -11.0020 C   0  0  0  0  0  0  0  0  0  0  0  0
   20.1653   -2.2256  -10.5592 N   0  0  0  0  0  0  0  0  0  0  0  0
   19.4455   -1.2073  -10.0593 C   0  0  0  0  0  0  0  0  0  0  0  0
   20.0285    0.0377   -9.9948 C   0  0  0  0  0  0  0  0  0  0  0  0
   19.3514    1.1218   -9.4960 F   0  0  0  0  0  0  0  0  0  0  0  0
   21.3352    0.2157  -10.4427 C   0  0  0  0  0  0  0  0  0  0  0  0
  1  2  3  0
  2  3  1  0
  3  4  2  0
  4  5  1  0
  5  6  1  0
  6  7  1  1
  5  8  2  0
  8  9  1  0
  9 10  2  0
 10 11  1  0
 11 12  1  0
 12 13  2  0
 13 14  1  0
 14 15  2  0
 15 16  1  0
 16 17  1  0
 16 18  2  0
 10  3  1  0
 18 12  1  0
M  END
$$$$
