_rank17
     RDKit          3D

 18 19  0  0  0  0  0  0  0  0999 V2000
   22.9551   -0.9271  -14.3793 N   0  0  0  0  0  0  0  0  0  0  0  0
   22.6541   -0.9414  -13.2700 C   0  0  0  0  0  0  0  0  0  0  0  0
   22.2643   -0.9410  -11.8939 C   0  0  0  0  0  0  0  0  0  0  0  0
   20.9314   -0.7835  -11.5932 C   0  0  0  0  0  0  0  0  0  0  0  0
   20.5465   -0.7817  -10.2711 C   0  0  0  0  0  0  0  0  0  0  0  0
   19.1183   -0.6138   -9.9245 C   0  0  0  0  0  0  0  0  0  0  0  0
   18.4405   -1.8331   -9.9870 O   0  0  0  0  0  0  0  0  0  0  0  0
   21.4935   -0.9364   -9.2794 C   0  0  0  0  0  0  0  0  0  0  0  0
   22.8353   -1.0934   -9.6235 C   0  0  0  0  0  0  0  0  0  0  0  0
   23.2409   -1.0980  -10.9398 C   0  0  0  0  0  0  0  0  0  0  0  0
   24.5867   -1.2576  -11.2252 O   0  0  0  0  0  0  0  0  0  0  0  0
   25.6065   -0.7253  -10.4935 C   0  0  0  0  0  0  0  0  0  0  0  0
   26.1030    0.5343  -10.7337 C   0  0  0  0  0  0  0  0  0  0  0  0
   27.1278    1.0419   -9.9823 N   0  0  0  0  0  0  0  0  0  0  0  0
   27.6955    0.3460   -8.9832 C   0  0  0  0  0  0  0  0  0  0  0  0
   27.2236   -0.9185   -8.7147 C   0  0  0  0  0  0  0  0  0  0  0  0
   27.7569   -1.6848   -7.7092 F   0  0  0  0  0  0  0  0  0  0  0  0
   26.1810   -1.4453   -9.4732 C   0  0  0  0  0  0  0  0  0  0  0  0
  1  2  3  0
  2  3  1  0
  3  4  2  0
  4  5  1  0
  5  6  1  0
  6  7  1  1
  5  8  2  0
  8  9  1  0
  9 10  2  0
 10 11  1  0
 11 12  1  0
 12 13  2  0
 13 14  1  0
 14 15  2  0
 15 16  1  0
 16 17  1  0
 16 18  2  0
 10  3  1  0
 18 12  1  0
M  END
$$$$
