_rank11
     RDKit          3D

 18 19  0  0  0  0  0  0  0  0999 V2000
   24.3091   -0.1211  -14.1218 N   0  0  0  0  0  0  0  0  0  0  0  0
   23.8571   -0.3332  -13.0865 C   0  0  0  0  0  0  0  0  0  0  0  0
   23.2930   -0.6206  -11.8039 C   0  0  0  0  0  0  0  0  0  0  0  0
   21.9306   -0.7855  -11.7123 C   0  0  0  0  0  0  0  0  0  0  0  0
   21.3784   -1.0624  -10.4815 C   0  0  0  0  0  0  0  0  0  0  0  0
   19.9154   -1.2437  -10.3595 C   0  0  0  0  0  0  0  0  0  0  0  0
   19.4736   -2.3039  -11.1535 O   0  0  0  0  0  0  0  0  0  0  0  0
   22.1915   -1.1691   -9.3717 C   0  0  0  0  0  0  0  0  0  0  0  0
   23.5683   -0.9954   -9.5045 C   0  0  0  0  0  0  0  0  0  0  0  0
   24.1403   -0.7178  -10.7263 C   0  0  0  0  0  0  0  0  0  0  0  0
   25.5136   -0.5547  -10.8011 O   0  0  0  0  0  0  0  0  0  0  0  0
   26.3572   -0.5531   -9.7301 C   0  0  0  0  0  0  0  0  0  0  0  0
   26.9537   -1.7009   -9.2634 C   0  0  0  0  0  0  0  0  0  0  0  0
   27.7963   -1.6679   -8.1857 N   0  0  0  0  0  0  0  0  0  0  0  0
   28.0818   -0.5277   -7.5351 C   0  0  0  0  0  0  0  0  0  0  0  0
   27.5024    0.6405   -7.9751 C   0  0  0  0  0  0  0  0  0  0  0  0
   27.7497    1.8407   -7.3578 F   0  0  0  0  0  0  0  0  0  0  0  0
   26.6432    0.6187   -9.0709 C   0  0  0  0  0  0  0  0  0  0  0  0
  1  2  3  0
  2  3  1  0
  3  4  2  0
  4  5  1  0
  5  6  1  0
  6  7  1  1
  5  8  2  0
  8  9  1  0
  9 10  2  0
 10 11  1  0
 11 12  1  0
 12 13  2  0
 13 14  1  0
 14 15  2  0
 15 16  1  0
 16 17  1  0
 16 18  2  0
 10  3  1  0
 18 12  1  0
M  END
$$$$
