_rank15
     RDKit          3D

 18 19  0  0  0  0  0  0  0  0999 V2000
   25.5182   -4.1191   -9.8242 N   0  0  0  0  0  0  0  0  0  0  0  0
   25.5960   -2.9767   -9.9261 C   0  0  0  0  0  0  0  0  0  0  0  0
   25.7165   -1.5569  -10.0484 C   0  0  0  0  0  0  0  0  0  0  0  0
   26.8264   -0.9474   -9.5114 C   0  0  0  0  0  0  0  0  0  0  0  0
   26.9511    0.4194   -9.6242 C   0  0  0  0  0  0  0  0  0  0  0  0
   28.1366    1.0960   -9.0541 C   0  0  0  0  0  0  0  0  0  0  0  0
   28.2523    0.8371   -7.6869 O   0  0  0  0  0  0  0  0  0  0  0  0
   25.9714    1.1482  -10.2671 C   0  0  0  0  0  0  0  0  0  0  0  0
   24.8607    0.4946  -10.7987 C   0  0  0  0  0  0  0  0  0  0  0  0
   24.7171   -0.8714  -10.6965 C   0  0  0  0  0  0  0  0  0  0  0  0
   23.5935   -1.4693  -11.2426 O   0  0  0  0  0  0  0  0  0  0  0  0
   22.3112   -1.2200  -10.8525 C   0  0  0  0  0  0  0  0  0  0  0  0
   21.8466   -1.5513   -9.6014 C   0  0  0  0  0  0  0  0  0  0  0  0
   20.5538   -1.2884   -9.2383 N   0  0  0  0  0  0  0  0  0  0  0  0
   19.6812   -0.7005  -10.0737 C   0  0  0  0  0  0  0  0  0  0  0  0
   20.1120   -0.3550  -11.3342 C   0  0  0  0  0  0  0  0  0  0  0  0
   19.2745    0.2482  -12.2383 F   0  0  0  0  0  0  0  0  0  0  0  0
   21.4258   -0.6179  -11.7145 C   0  0  0  0  0  0  0  0  0  0  0  0
  1  2  3  0
  2  3  1  0
  3  4  2  0
  4  5  1  0
  5  6  1  0
  6  7  1  1
  5  8  2  0
  8  9  1  0
  9 10  2  0
 10 11  1  0
 11 12  1  0
 12 13  2  0
 13 14  1  0
 14 15  2  0
 15 16  1  0
 16 17  1  0
 16 18  2  0
 10  3  1  0
 18 12  1  0
M  END
$$$$
