_rank12
     RDKit          3D

 18 19  0  0  0  0  0  0  0  0999 V2000
   24.3897   -4.3592  -11.3647 N   0  0  0  0  0  0  0  0  0  0  0  0
   24.5531   -3.2807  -11.0021 C   0  0  0  0  0  0  0  0  0  0  0  0
   24.7330   -1.9372  -10.5458 C   0  0  0  0  0  0  0  0  0  0  0  0
   25.9776   -1.5616  -10.0966 C   0  0  0  0  0  0  0  0  0  0  0  0
   26.1603   -0.2700   -9.6552 C   0  0  0  0  0  0  0  0  0  0  0  0
   27.4904    0.1558   -9.1677 C   0  0  0  0  0  0  0  0  0  0  0  0
   27.4673    0.3947   -7.7922 O   0  0  0  0  0  0  0  0  0  0  0  0
   25.1037    0.6174   -9.6702 C   0  0  0  0  0  0  0  0  0  0  0  0
   23.8568    0.1995  -10.1329 C   0  0  0  0  0  0  0  0  0  0  0  0
   23.6532   -1.0877  -10.5786 C   0  0  0  0  0  0  0  0  0  0  0  0
   22.3939   -1.4495  -11.0276 O   0  0  0  0  0  0  0  0  0  0  0  0
   21.2200   -1.0037  -10.4967 C   0  0  0  0  0  0  0  0  0  0  0  0
   20.6036   -1.6360   -9.4427 C   0  0  0  0  0  0  0  0  0  0  0  0
   19.4252   -1.1648   -8.9310 N   0  0  0  0  0  0  0  0  0  0  0  0
   18.8160   -0.0739   -9.4247 C   0  0  0  0  0  0  0  0  0  0  0  0
   19.4049    0.5843  -10.4801 C   0  0  0  0  0  0  0  0  0  0  0  0
   18.8377    1.7046  -11.0333 F   0  0  0  0  0  0  0  0  0  0  0  0
   20.6043    0.1136  -11.0088 C   0  0  0  0  0  0  0  0  0  0  0  0
  1  2  3  0
  2  3  1  0
  3  4  2  0
  4  5  1  0
  5  6  1  0
  6  7  1  1
  5  8  2  0
  8  9  1  0
  9 10  2  0
 10 11  1  0
 11 12  1  0
 12 13  2  0
 13 14  1  0
 14 15  2  0
 15 16  1  0
 16 17  1  0
 16 18  2  0
 10  3  1  0
 18 12  1  0
M  END
$$$$
