_rank18
     RDKit          3D

 18 19  0  0  0  0  0  0  0  0999 V2000
   23.2154   -2.6091  -13.6359 N   0  0  0  0  0  0  0  0  0  0  0  0
   22.9119   -1.9210  -12.7665 C   0  0  0  0  0  0  0  0  0  0  0  0
   22.5271   -1.0842  -11.6723 C   0  0  0  0  0  0  0  0  0  0  0  0
   21.2212   -1.1308  -11.2428 C   0  0  0  0  0  0  0  0  0  0  0  0
   20.8414   -0.3286  -10.1899 C   0  0  0  0  0  0  0  0  0  0  0  0
   19.4421   -0.3624   -9.7114 C   0  0  0  0  0  0  0  0  0  0  0  0
   18.5797    0.2198  -10.6426 O   0  0  0  0  0  0  0  0  0  0  0  0
   21.7665    0.5002   -9.5887 C   0  0  0  0  0  0  0  0  0  0  0  0
   23.0811    0.5196  -10.0522 C   0  0  0  0  0  0  0  0  0  0  0  0
   23.4812   -0.2748  -11.1039 C   0  0  0  0  0  0  0  0  0  0  0  0
   24.7997   -0.2158  -11.5238 O   0  0  0  0  0  0  0  0  0  0  0  0
   25.8789   -0.1438  -10.6938 C   0  0  0  0  0  0  0  0  0  0  0  0
   27.0873    0.3692  -11.1032 C   0  0  0  0  0  0  0  0  0  0  0  0
   28.1530    0.4285  -10.2470 N   0  0  0  0  0  0  0  0  0  0  0  0
   28.0765   -0.0055   -8.9779 C   0  0  0  0  0  0  0  0  0  0  0  0
   26.8820   -0.5253   -8.5340 C   0  0  0  0  0  0  0  0  0  0  0  0
   26.7333   -0.9867   -7.2504 F   0  0  0  0  0  0  0  0  0  0  0  0
   25.7907   -0.5905   -9.3968 C   0  0  0  0  0  0  0  0  0  0  0  0
  1  2  3  0
  2  3  1  0
  3  4  2  0
  4  5  1  0
  5  6  1  0
  6  7  1  1
  5  8  2  0
  8  9  1  0
  9 10  2  0
 10 11  1  0
 11 12  1  0
 12 13  2  0
 13 14  1  0
 14 15  2  0
 15 16  1  0
 16 17  1  0
 16 18  2  0
 10  3  1  0
 18 12  1  0
M  END
$$$$
