_rank5
     RDKit          3D

 18 19  0  0  0  0  0  0  0  0999 V2000
   26.3133   -0.1704  -13.6819 N   0  0  0  0  0  0  0  0  0  0  0  0
   26.1563   -0.1426  -12.5435 C   0  0  0  0  0  0  0  0  0  0  0  0
   25.9402   -0.1198  -11.1299 C   0  0  0  0  0  0  0  0  0  0  0  0
   27.0283    0.0497  -10.3059 C   0  0  0  0  0  0  0  0  0  0  0  0
   26.8300    0.0729   -8.9434 C   0  0  0  0  0  0  0  0  0  0  0  0
   27.9859    0.2541   -8.0382 C   0  0  0  0  0  0  0  0  0  0  0  0
   28.2221   -0.9006   -7.2895 O   0  0  0  0  0  0  0  0  0  0  0  0
   25.5568   -0.0727   -8.4316 C   0  0  0  0  0  0  0  0  0  0  0  0
   24.4786   -0.2425   -9.2989 C   0  0  0  0  0  0  0  0  0  0  0  0
   24.6556   -0.2685  -10.6645 C   0  0  0  0  0  0  0  0  0  0  0  0
   23.5494   -0.4401  -11.4800 O   0  0  0  0  0  0  0  0  0  0  0  0
   22.2927   -0.7288  -11.0371 C   0  0  0  0  0  0  0  0  0  0  0  0
   21.9889   -1.9152  -10.4118 C   0  0  0  0  0  0  0  0  0  0  0  0
   20.7177   -2.1767   -9.9780 N   0  0  0  0  0  0  0  0  0  0  0  0
   19.7124   -1.3000  -10.1378 C   0  0  0  0  0  0  0  0  0  0  0  0
   19.9804   -0.1020  -10.7597 C   0  0  0  0  0  0  0  0  0  0  0  0
   19.0015    0.8392  -10.9558 F   0  0  0  0  0  0  0  0  0  0  0  0
   21.2706    0.1749  -11.2052 C   0  0  0  0  0  0  0  0  0  0  0  0
  1  2  3  0
  2  3  1  0
  3  4  2  0
  4  5  1  0
  5  6  1  0
  6  7  1  1
  5  8  2  0
  8  9  1  0
  9 10  2  0
 10 11  1  0
 11 12  1  0
 12 13  2  0
 13 14  1  0
 14 15  2  0
 15 16  1  0
 16 17  1  0
 16 18  2  0
 10  3  1  0
 18 12  1  0
M  END
$$$$
