_rank8
     RDKit          3D

 18 19  0  0  0  0  0  0  0  0999 V2000
   26.4105   -0.0100  -13.5800 N   0  0  0  0  0  0  0  0  0  0  0  0
   26.2991   -0.1169  -12.4409 C   0  0  0  0  0  0  0  0  0  0  0  0
   26.1384   -0.2405  -11.0251 C   0  0  0  0  0  0  0  0  0  0  0  0
   27.2576   -0.4684  -10.2586 C   0  0  0  0  0  0  0  0  0  0  0  0
   27.1126   -0.5888   -8.8945 C   0  0  0  0  0  0  0  0  0  0  0  0
   28.3026   -0.8341   -8.0507 C   0  0  0  0  0  0  0  0  0  0  0  0
   28.9636    0.3602   -7.7569 O   0  0  0  0  0  0  0  0  0  0  0  0
   25.8609   -0.4802   -8.3241 C   0  0  0  0  0  0  0  0  0  0  0  0
   24.7500   -0.2490   -9.1341 C   0  0  0  0  0  0  0  0  0  0  0  0
   24.8735   -0.1255  -10.5003 C   0  0  0  0  0  0  0  0  0  0  0  0
   23.7367    0.1038  -11.2573 O   0  0  0  0  0  0  0  0  0  0  0  0
   22.4827   -0.3167  -10.9265 C   0  0  0  0  0  0  0  0  0  0  0  0
   21.4964    0.5555  -10.5297 C   0  0  0  0  0  0  0  0  0  0  0  0
   20.2467    0.1035  -10.2037 N   0  0  0  0  0  0  0  0  0  0  0  0
   19.9212   -1.1990  -10.2532 C   0  0  0  0  0  0  0  0  0  0  0  0
   20.8839   -2.1005  -10.6461 C   0  0  0  0  0  0  0  0  0  0  0  0
   20.6205   -3.4451  -10.7191 F   0  0  0  0  0  0  0  0  0  0  0  0
   22.1593   -1.6517  -10.9803 C   0  0  0  0  0  0  0  0  0  0  0  0
  1  2  3  0
  2  3  1  0
  3  4  2  0
  4  5  1  0
  5  6  1  0
  6  7  1  1
  5  8  2  0
  8  9  1  0
  9 10  2  0
 10 11  1  0
 11 12  1  0
 12 13  2  0
 13 14  1  0
 14 15  2  0
 15 16  1  0
 16 17  1  0
 16 18  2  0
 10  3  1  0
 18 12  1  0
M  END
$$$$
