_rank19
     RDKit          3D

 18 19  0  0  0  0  0  0  0  0999 V2000
   22.9239    2.7139  -10.8009 N   0  0  0  0  0  0  0  0  0  0  0  0
   22.6283    1.6053  -10.7311 C   0  0  0  0  0  0  0  0  0  0  0  0
   22.2778    0.2205  -10.6602 C   0  0  0  0  0  0  0  0  0  0  0  0
   20.9782   -0.1089  -10.3527 C   0  0  0  0  0  0  0  0  0  0  0  0
   20.6313   -1.4397  -10.2822 C   0  0  0  0  0  0  0  0  0  0  0  0
   19.2394   -1.8170   -9.9531 C   0  0  0  0  0  0  0  0  0  0  0  0
   18.3636   -0.7547  -10.1859 O   0  0  0  0  0  0  0  0  0  0  0  0
   21.5823   -2.4113  -10.5185 C   0  0  0  0  0  0  0  0  0  0  0  0
   22.8895   -2.0382  -10.8274 C   0  0  0  0  0  0  0  0  0  0  0  0
   23.2568   -0.7129  -10.9029 C   0  0  0  0  0  0  0  0  0  0  0  0
   24.5694   -0.3985  -11.2136 O   0  0  0  0  0  0  0  0  0  0  0  0
   25.6216   -0.5108  -10.3540 C   0  0  0  0  0  0  0  0  0  0  0  0
   25.4816   -0.3446   -8.9962 C   0  0  0  0  0  0  0  0  0  0  0  0
   26.5567   -0.4634   -8.1581 N   0  0  0  0  0  0  0  0  0  0  0  0
   27.7897   -0.7451   -8.6112 C   0  0  0  0  0  0  0  0  0  0  0  0
   27.9667   -0.9179   -9.9649 C   0  0  0  0  0  0  0  0  0  0  0  0
   29.1982   -1.2072  -10.4962 F   0  0  0  0  0  0  0  0  0  0  0  0
   26.8795   -0.7992  -10.8273 C   0  0  0  0  0  0  0  0  0  0  0  0
  1  2  3  0
  2  3  1  0
  3  4  2  0
  4  5  1  0
  5  6  1  0
  6  7  1  1
  5  8  2  0
  8  9  1  0
  9 10  2  0
 10 11  1  0
 11 12  1  0
 12 13  2  0
 13 14  1  0
 14 15  2  0
 15 16  1  0
 16 17  1  0
 16 18  2  0
 10  3  1  0
 18 12  1  0
M  END
$$$$
