_rank13
     RDKit          3D

 26 28  0  0  0  0  0  0  0  0999 V2000
   28.1738    1.2355   -8.2790 C   0  0  0  0  0  0  0  0  0  0  0  0
   27.5179   -0.4023   -8.5635 S   0  0  1  0  0  6  0  0  0  0  0  0
   28.5166   -1.2342   -9.2943 O   0  0  0  0  0  0  0  0  0  0  0  0
   27.1728   -1.0197   -7.2181 O   0  0  0  0  0  0  0  0  0  0  0  0
   26.0738   -0.2765   -9.5300 C   0  0  0  0  0  0  0  0  0  0  0  0
   24.8658   -0.6052   -8.9819 C   0  0  0  0  0  0  0  0  0  0  0  0
   23.7334   -0.5018   -9.7553 C   0  0  0  0  0  0  0  0  0  0  0  0
   23.8348   -0.0645  -11.0824 C   0  0  0  0  0  0  0  0  0  0  0  0
   22.6776    0.0318  -11.8432 O   0  0  0  0  0  0  0  0  0  0  0  0
   21.4346   -0.0896  -11.2761 C   0  0  0  0  0  0  0  0  0  0  0  0
   20.8471    0.9757  -10.6408 C   0  0  0  0  0  0  0  0  0  0  0  0
   19.5779    0.8563  -10.0602 C   0  0  0  0  0  0  0  0  0  0  0  0
   18.9728    1.8853   -9.4283 F   0  0  0  0  0  0  0  0  0  0  0  0
   18.9156   -0.3453  -10.1298 C   0  0  0  0  0  0  0  0  0  0  0  0
   19.4982   -1.4380  -10.7716 C   0  0  0  0  0  0  0  0  0  0  0  0
   18.7706   -2.6617  -10.8165 C   0  0  0  0  0  0  0  0  0  0  0  0
   18.1918   -3.6702  -10.8627 N   0  0  0  0  0  0  0  0  0  0  0  0
   20.7626   -1.2822  -11.3379 C   0  0  0  0  0  0  0  0  0  0  0  0
   25.0590    0.2616  -11.6155 C   0  0  0  0  0  0  0  0  0  0  0  0
   26.1983    0.1604  -10.8469 C   0  0  0  0  0  0  0  0  0  0  0  0
   27.3862    0.5636  -11.6385 C   0  0  2  0  0  0  0  0  0  0  0  0
   27.5964    1.9402  -11.6204 O   0  0  0  0  0  0  0  0  0  0  0  0
   26.8871    0.2181  -13.0491 C   0  0  0  0  0  0  0  0  0  0  0  0
   25.4696    0.7432  -12.9548 C   0  0  1  0  0  0  0  0  0  0  0  0
   24.6713    0.2570  -13.9639 F   0  0  0  0  0  0  0  0  0  0  0  0
   25.5439    2.1214  -12.9681 F   0  0  0  0  0  0  0  0  0  0  0  0
  1  2  1  1
  2  3  2  0
  2  4  2  0
  2  5  1  6
  5  6  2  0
  6  7  1  0
  7  8  2  0
  8  9  1  0
  9 10  1  0
 10 11  2  0
 11 12  1  0
 12 13  1  0
 12 14  2  0
 14 15  1  0
 15 16  1  0
 16 17  3  0
 15 18  2  0
  8 19  1  0
 19 20  2  0
 20 21  1  0
 21 22  1  6
 23 21  1  1
 23 24  1  0
 24 25  1  6
 24 26  1  0
 20  5  1  0
 18 10  1  0
 24 19  1  0
M  END
$$$$
