_rank8
     RDKit          3D

 26 28  0  0  0  0  0  0  0  0999 V2000
   28.9062   -1.3176   -8.9415 C   0  0  0  0  0  0  0  0  0  0  0  0
   27.7234   -0.1368   -8.3091 S   0  0  1  0  0  6  0  0  0  0  0  0
   27.3535   -0.4830   -6.9067 O   0  0  0  0  0  0  0  0  0  0  0  0
   28.3439    1.2488   -8.3840 O   0  0  0  0  0  0  0  0  0  0  0  0
   26.2896   -0.1829   -9.2979 C   0  0  0  0  0  0  0  0  0  0  0  0
   25.0867   -0.4887   -8.7260 C   0  0  0  0  0  0  0  0  0  0  0  0
   23.9624   -0.5220   -9.5173 C   0  0  0  0  0  0  0  0  0  0  0  0
   24.0669   -0.2441  -10.8865 C   0  0  0  0  0  0  0  0  0  0  0  0
   22.9180   -0.2839  -11.6647 O   0  0  0  0  0  0  0  0  0  0  0  0
   21.6790   -0.4655  -11.1050 C   0  0  0  0  0  0  0  0  0  0  0  0
   21.0744   -1.6975  -11.1257 C   0  0  0  0  0  0  0  0  0  0  0  0
   19.8092   -1.8876  -10.5553 C   0  0  0  0  0  0  0  0  0  0  0  0
   19.1878   -3.0869  -10.5593 F   0  0  0  0  0  0  0  0  0  0  0  0
   19.1682   -0.8239   -9.9682 C   0  0  0  0  0  0  0  0  0  0  0  0
   19.7682    0.4348   -9.9384 C   0  0  0  0  0  0  0  0  0  0  0  0
   19.0623    1.5051   -9.3179 C   0  0  0  0  0  0  0  0  0  0  0  0
   18.4951    2.3926   -8.8231 N   0  0  0  0  0  0  0  0  0  0  0  0
   21.0280    0.5867  -10.5160 C   0  0  0  0  0  0  0  0  0  0  0  0
   25.2859    0.0614  -11.4430 C   0  0  0  0  0  0  0  0  0  0  0  0
   26.4170    0.0967  -10.6567 C   0  0  0  0  0  0  0  0  0  0  0  0
   27.6007    0.4462  -11.4795 C   0  0  2  0  0  0  0  0  0  0  0  0
   27.7605    1.8220  -11.6258 O   0  0  0  0  0  0  0  0  0  0  0  0
   27.1347   -0.0852  -12.8428 C   0  0  0  0  0  0  0  0  0  0  0  0
   25.6979    0.3935  -12.8266 C   0  0  1  0  0  0  0  0  0  0  0  0
   24.9323   -0.2404  -13.7774 F   0  0  0  0  0  0  0  0  0  0  0  0
   25.7222    1.7619  -13.0056 F   0  0  0  0  0  0  0  0  0  0  0  0
  1  2  1  1
  2  3  2  0
  2  4  2  0
  2  5  1  6
  5  6  2  0
  6  7  1  0
  7  8  2  0
  8  9  1  0
  9 10  1  0
 10 11  2  0
 11 12  1  0
 12 13  1  0
 12 14  2  0
 14 15  1  0
 15 16  1  0
 16 17  3  0
 15 18  2  0
  8 19  1  0
 19 20  2  0
 20 21  1  0
 21 22  1  6
 23 21  1  1
 23 24  1  0
 24 25  1  6
 24 26  1  0
 20  5  1  0
 18 10  1  0
 24 19  1  0
M  END
$$$$
