_rank1
     RDKit          3D

 26 28  0  0  0  0  0  0  0  0999 V2000
   29.0358    0.2519   -9.3990 C   0  0  0  0  0  0  0  0  0  0  0  0
   27.6643   -0.4210   -8.4718 S   0  0  1  0  0  6  0  0  0  0  0  0
   27.9690   -1.8176   -8.0473 O   0  0  0  0  0  0  0  0  0  0  0  0
   27.4158    0.4735   -7.2683 O   0  0  0  0  0  0  0  0  0  0  0  0
   26.2464   -0.4363   -9.4841 C   0  0  0  0  0  0  0  0  0  0  0  0
   25.0597   -0.8826   -8.9743 C   0  0  0  0  0  0  0  0  0  0  0  0
   23.9478   -0.8898   -9.7836 C   0  0  0  0  0  0  0  0  0  0  0  0
   24.0482   -0.4429  -11.1077 C   0  0  0  0  0  0  0  0  0  0  0  0
   22.9121   -0.4596  -11.9052 O   0  0  0  0  0  0  0  0  0  0  0  0
   21.6632   -0.6472  -11.3700 C   0  0  0  0  0  0  0  0  0  0  0  0
   20.9829   -1.8218  -11.5729 C   0  0  0  0  0  0  0  0  0  0  0  0
   19.7074   -2.0177  -11.0282 C   0  0  0  0  0  0  0  0  0  0  0  0
   19.0123   -3.1616  -11.2095 F   0  0  0  0  0  0  0  0  0  0  0  0
   19.1330   -1.0180  -10.2813 C   0  0  0  0  0  0  0  0  0  0  0  0
   19.8104    0.1819  -10.0653 C   0  0  0  0  0  0  0  0  0  0  0  0
   19.1716    1.1869   -9.2838 C   0  0  0  0  0  0  0  0  0  0  0  0
   18.6317    2.0003   -8.6505 N   0  0  0  0  0  0  0  0  0  0  0  0
   21.0781    0.3415  -10.6229 C   0  0  0  0  0  0  0  0  0  0  0  0
   25.2510    0.0023  -11.6020 C   0  0  0  0  0  0  0  0  0  0  0  0
   26.3695    0.0124  -10.7972 C   0  0  0  0  0  0  0  0  0  0  0  0
   27.5369    0.5311  -11.5512 C   0  0  2  0  0  0  0  0  0  0  0  0
   27.6104    1.9217  -11.5290 O   0  0  0  0  0  0  0  0  0  0  0  0
   27.1193    0.1402  -12.9764 C   0  0  0  0  0  0  0  0  0  0  0  0
   25.6550    0.5236  -12.9284 C   0  0  1  0  0  0  0  0  0  0  0  0
   24.9408   -0.0373  -13.9616 F   0  0  0  0  0  0  0  0  0  0  0  0
   25.5941    1.9024  -12.9419 F   0  0  0  0  0  0  0  0  0  0  0  0
  1  2  1  1
  2  3  2  0
  2  4  2  0
  2  5  1  6
  5  6  2  0
  6  7  1  0
  7  8  2  0
  8  9  1  0
  9 10  1  0
 10 11  2  0
 11 12  1  0
 12 13  1  0
 12 14  2  0
 14 15  1  0
 15 16  1  0
 16 17  3  0
 15 18  2  0
  8 19  1  0
 19 20  2  0
 20 21  1  0
 21 22  1  6
 23 21  1  1
 23 24  1  0
 24 25  1  6
 24 26  1  0
 20  5  1  0
 18 10  1  0
 24 19  1  0
M  END
$$$$
