_rank11
     RDKit          3D

 26 28  0  0  0  0  0  0  0  0999 V2000
   27.7862    1.3248   -7.7681 C   0  0  0  0  0  0  0  0  0  0  0  0
   27.5400   -0.2998   -8.4706 S   0  0  1  0  0  6  0  0  0  0  0  0
   28.7060   -0.6716   -9.3225 O   0  0  0  0  0  0  0  0  0  0  0  0
   27.3574   -1.2904   -7.3324 O   0  0  0  0  0  0  0  0  0  0  0  0
   26.1043   -0.2810   -9.4574 C   0  0  0  0  0  0  0  0  0  0  0  0
   24.9009   -0.6137   -8.9019 C   0  0  0  0  0  0  0  0  0  0  0  0
   23.7750   -0.5951   -9.6915 C   0  0  0  0  0  0  0  0  0  0  0  0
   23.8784   -0.2381  -11.0423 C   0  0  0  0  0  0  0  0  0  0  0  0
   22.7279   -0.2266  -11.8191 O   0  0  0  0  0  0  0  0  0  0  0  0
   21.4794   -0.2336  -11.2511 C   0  0  0  0  0  0  0  0  0  0  0  0
   20.9567    0.9065  -10.6936 C   0  0  0  0  0  0  0  0  0  0  0  0
   19.6821    0.9040  -10.1126 C   0  0  0  0  0  0  0  0  0  0  0  0
   19.1398    2.0087   -9.5560 F   0  0  0  0  0  0  0  0  0  0  0  0
   18.9486   -0.2575  -10.1026 C   0  0  0  0  0  0  0  0  0  0  0  0
   19.4646   -1.4249  -10.6648 C   0  0  0  0  0  0  0  0  0  0  0  0
   18.6644   -2.6027  -10.6291 C   0  0  0  0  0  0  0  0  0  0  0  0
   18.0128   -3.5656  -10.5797 N   0  0  0  0  0  0  0  0  0  0  0  0
   20.7365   -1.3850  -11.2342 C   0  0  0  0  0  0  0  0  0  0  0  0
   25.0980    0.0934  -11.5825 C   0  0  0  0  0  0  0  0  0  0  0  0
   26.2306    0.0770  -10.7978 C   0  0  0  0  0  0  0  0  0  0  0  0
   27.4147    0.4682  -11.6012 C   0  0  2  0  0  0  0  0  0  0  0  0
   27.5811    1.8493  -11.6672 O   0  0  0  0  0  0  0  0  0  0  0  0
   26.9435    0.0197  -12.9924 C   0  0  0  0  0  0  0  0  0  0  0  0
   25.5092    0.5037  -12.9451 C   0  0  1  0  0  0  0  0  0  0  0  0
   24.7387   -0.0697  -13.9298 F   0  0  0  0  0  0  0  0  0  0  0  0
   25.5401    1.8801  -13.0439 F   0  0  0  0  0  0  0  0  0  0  0  0
  1  2  1  1
  2  3  2  0
  2  4  2  0
  2  5  1  6
  5  6  2  0
  6  7  1  0
  7  8  2  0
  8  9  1  0
  9 10  1  0
 10 11  2  0
 11 12  1  0
 12 13  1  0
 12 14  2  0
 14 15  1  0
 15 16  1  0
 16 17  3  0
 15 18  2  0
  8 19  1  0
 19 20  2  0
 20 21  1  0
 21 22  1  6
 23 21  1  1
 23 24  1  0
 24 25  1  6
 24 26  1  0
 20  5  1  0
 18 10  1  0
 24 19  1  0
M  END
$$$$
