_rank18
     RDKit          3D

 26 28  0  0  0  0  0  0  0  0999 V2000
   27.9017    1.1588   -7.5995 C   0  0  0  0  0  0  0  0  0  0  0  0
   27.8512   -0.4913   -8.2836 S   0  0  1  0  0  6  0  0  0  0  0  0
   29.0722   -0.7443   -9.1014 O   0  0  0  0  0  0  0  0  0  0  0  0
   27.7480   -1.4821   -7.1356 O   0  0  0  0  0  0  0  0  0  0  0  0
   26.4478   -0.6407   -9.3051 C   0  0  0  0  0  0  0  0  0  0  0  0
   25.3451   -1.3018   -8.8419 C   0  0  0  0  0  0  0  0  0  0  0  0
   24.2436   -1.4130   -9.6579 C   0  0  0  0  0  0  0  0  0  0  0  0
   24.2690   -0.8513  -10.9411 C   0  0  0  0  0  0  0  0  0  0  0  0
   23.1451   -0.9765  -11.7464 O   0  0  0  0  0  0  0  0  0  0  0  0
   21.8789   -0.9445  -11.2199 C   0  0  0  0  0  0  0  0  0  0  0  0
   21.5483   -0.0377  -10.2442 C   0  0  0  0  0  0  0  0  0  0  0  0
   20.2565   -0.0015   -9.7037 C   0  0  0  0  0  0  0  0  0  0  0  0
   19.8999    0.8784   -8.7429 F   0  0  0  0  0  0  0  0  0  0  0  0
   19.3106   -0.8874  -10.1593 C   0  0  0  0  0  0  0  0  0  0  0  0
   19.6297   -1.8154  -11.1503 C   0  0  0  0  0  0  0  0  0  0  0  0
   18.6134   -2.7121  -11.5884 C   0  0  0  0  0  0  0  0  0  0  0  0
   17.7696   -3.4295  -11.9456 N   0  0  0  0  0  0  0  0  0  0  0  0
   20.9253   -1.8223  -11.6649 C   0  0  0  0  0  0  0  0  0  0  0  0
   25.3878   -0.1901  -11.3888 C   0  0  0  0  0  0  0  0  0  0  0  0
   26.4953   -0.0745  -10.5770 C   0  0  0  0  0  0  0  0  0  0  0  0
   27.5667    0.6745  -11.2779 C   0  0  2  0  0  0  0  0  0  0  0  0
   27.4277    2.0538  -11.1439 O   0  0  0  0  0  0  0  0  0  0  0  0
   27.2072    0.3403  -12.7331 C   0  0  0  0  0  0  0  0  0  0  0  0
   25.7018    0.4914  -12.6660 C   0  0  1  0  0  0  0  0  0  0  0  0
   25.0768   -0.0868  -13.7463 F   0  0  0  0  0  0  0  0  0  0  0  0
   25.4316    1.8415  -12.5696 F   0  0  0  0  0  0  0  0  0  0  0  0
  1  2  1  1
  2  3  2  0
  2  4  2  0
  2  5  1  6
  5  6  2  0
  6  7  1  0
  7  8  2  0
  8  9  1  0
  9 10  1  0
 10 11  2  0
 11 12  1  0
 12 13  1  0
 12 14  2  0
 14 15  1  0
 15 16  1  0
 16 17  3  0
 15 18  2  0
  8 19  1  0
 19 20  2  0
 20 21  1  0
 21 22  1  6
 23 21  1  1
 23 24  1  0
 24 25  1  6
 24 26  1  0
 20  5  1  0
 18 10  1  0
 24 19  1  0
M  END
$$$$
