_rank4
     RDKit          3D

 26 28  0  0  0  0  0  0  0  0999 V2000
   28.4479    1.4136   -8.7106 C   0  0  0  0  0  0  0  0  0  0  0  0
   27.6909   -0.1988   -8.5667 S   0  0  1  0  0  6  0  0  0  0  0  0
   28.6398   -1.2530   -9.0269 O   0  0  0  0  0  0  0  0  0  0  0  0
   27.2973   -0.4146   -7.1145 O   0  0  0  0  0  0  0  0  0  0  0  0
   26.2649   -0.2487   -9.5664 C   0  0  0  0  0  0  0  0  0  0  0  0
   25.0873   -0.6976   -9.0379 C   0  0  0  0  0  0  0  0  0  0  0  0
   23.9688   -0.7322   -9.8374 C   0  0  0  0  0  0  0  0  0  0  0  0
   24.0534   -0.3101  -11.1706 C   0  0  0  0  0  0  0  0  0  0  0  0
   22.9109   -0.3543  -11.9580 O   0  0  0  0  0  0  0  0  0  0  0  0
   21.6636   -0.4922  -11.4042 C   0  0  0  0  0  0  0  0  0  0  0  0
   20.9828   -1.6803  -11.4976 C   0  0  0  0  0  0  0  0  0  0  0  0
   19.7088   -1.8256  -10.9336 C   0  0  0  0  0  0  0  0  0  0  0  0
   19.0133   -2.9811  -11.0083 F   0  0  0  0  0  0  0  0  0  0  0  0
   19.1366   -0.7621  -10.2788 C   0  0  0  0  0  0  0  0  0  0  0  0
   19.8146    0.4523  -10.1747 C   0  0  0  0  0  0  0  0  0  0  0  0
   19.1781    1.5243   -9.4858 C   0  0  0  0  0  0  0  0  0  0  0  0
   18.6597    2.4116   -8.9397 N   0  0  0  0  0  0  0  0  0  0  0  0
   21.0807    0.5603  -10.7482 C   0  0  0  0  0  0  0  0  0  0  0  0
   25.2471    0.1381  -11.6838 C   0  0  0  0  0  0  0  0  0  0  0  0
   26.3722    0.1757  -10.8890 C   0  0  0  0  0  0  0  0  0  0  0  0
   27.5275    0.6920  -11.6628 C   0  0  2  0  0  0  0  0  0  0  0  0
   27.5862    2.0834  -11.6681 O   0  0  0  0  0  0  0  0  0  0  0  0
   27.1023    0.2690  -13.0766 C   0  0  0  0  0  0  0  0  0  0  0  0
   25.6344    0.6378  -13.0234 C   0  0  1  0  0  0  0  0  0  0  0  0
   24.9177    0.0495  -14.0394 F   0  0  0  0  0  0  0  0  0  0  0  0
   25.5585    2.0154  -13.0630 F   0  0  0  0  0  0  0  0  0  0  0  0
  1  2  1  1
  2  3  2  0
  2  4  2  0
  2  5  1  6
  5  6  2  0
  6  7  1  0
  7  8  2  0
  8  9  1  0
  9 10  1  0
 10 11  2  0
 11 12  1  0
 12 13  1  0
 12 14  2  0
 14 15  1  0
 15 16  1  0
 16 17  3  0
 15 18  2  0
  8 19  1  0
 19 20  2  0
 20 21  1  0
 21 22  1  6
 23 21  1  1
 23 24  1  0
 24 25  1  6
 24 26  1  0
 20  5  1  0
 18 10  1  0
 24 19  1  0
M  END
$$$$
