_rank2
     RDKit          3D

 26 28  0  0  0  0  0  0  0  0999 V2000
   28.1151    1.2293   -7.8194 C   0  0  0  0  0  0  0  0  0  0  0  0
   27.6574   -0.4214   -8.3282 S   0  0  1  0  0  6  0  0  0  0  0  0
   28.7695   -1.0464   -9.1003 O   0  0  0  0  0  0  0  0  0  0  0  0
   27.3328   -1.2326   -7.0845 O   0  0  0  0  0  0  0  0  0  0  0  0
   26.2458   -0.3319   -9.3455 C   0  0  0  0  0  0  0  0  0  0  0  0
   25.0403   -0.7587   -8.8637 C   0  0  0  0  0  0  0  0  0  0  0  0
   23.9336   -0.6830   -9.6766 C   0  0  0  0  0  0  0  0  0  0  0  0
   24.0582   -0.1734  -10.9757 C   0  0  0  0  0  0  0  0  0  0  0  0
   22.9269   -0.1069  -11.7774 O   0  0  0  0  0  0  0  0  0  0  0  0
   21.6676   -0.2543  -11.2540 C   0  0  0  0  0  0  0  0  0  0  0  0
   21.0189   -1.4620  -11.3184 C   0  0  0  0  0  0  0  0  0  0  0  0
   19.7329   -1.6172  -10.7851 C   0  0  0  0  0  0  0  0  0  0  0  0
   19.0681   -2.7920  -10.8326 F   0  0  0  0  0  0  0  0  0  0  0  0
   19.1161   -0.5433  -10.1905 C   0  0  0  0  0  0  0  0  0  0  0  0
   19.7611    0.6911  -10.1165 C   0  0  0  0  0  0  0  0  0  0  0  0
   19.0789    1.7731   -9.4899 C   0  0  0  0  0  0  0  0  0  0  0  0
   18.5155    2.6637   -8.9962 N   0  0  0  0  0  0  0  0  0  0  0  0
   21.0404    0.8083  -10.6579 C   0  0  0  0  0  0  0  0  0  0  0  0
   25.2796    0.2509  -11.4420 C   0  0  0  0  0  0  0  0  0  0  0  0
   26.3930    0.1781  -10.6335 C   0  0  0  0  0  0  0  0  0  0  0  0
   27.5833    0.6903  -11.3555 C   0  0  2  0  0  0  0  0  0  0  0  0
   27.7084    2.0742  -11.2621 O   0  0  0  0  0  0  0  0  0  0  0  0
   27.1596    0.3883  -12.8004 C   0  0  0  0  0  0  0  0  0  0  0  0
   25.7103    0.8234  -12.7385 C   0  0  1  0  0  0  0  0  0  0  0  0
   24.9817    0.3431  -13.8017 F   0  0  0  0  0  0  0  0  0  0  0  0
   25.7010    2.2025  -12.6818 F   0  0  0  0  0  0  0  0  0  0  0  0
  1  2  1  1
  2  3  2  0
  2  4  2  0
  2  5  1  6
  5  6  2  0
  6  7  1  0
  7  8  2  0
  8  9  1  0
  9 10  1  0
 10 11  2  0
 11 12  1  0
 12 13  1  0
 12 14  2  0
 14 15  1  0
 15 16  1  0
 16 17  3  0
 15 18  2  0
  8 19  1  0
 19 20  2  0
 20 21  1  0
 21 22  1  6
 23 21  1  1
 23 24  1  0
 24 25  1  6
 24 26  1  0
 20  5  1  0
 18 10  1  0
 24 19  1  0
M  END
$$$$
