_rank6
     RDKit          3D

 26 28  0  0  0  0  0  0  0  0999 V2000
   28.9080   -1.4177   -8.9769 C   0  0  0  0  0  0  0  0  0  0  0  0
   27.7226   -0.2257   -8.3709 S   0  0  1  0  0  6  0  0  0  0  0  0
   27.3295   -0.5599   -6.9718 O   0  0  0  0  0  0  0  0  0  0  0  0
   28.3522    1.1557   -8.4460 O   0  0  0  0  0  0  0  0  0  0  0  0
   26.3037   -0.2707   -9.3810 C   0  0  0  0  0  0  0  0  0  0  0  0
   25.1106   -0.6716   -8.8487 C   0  0  0  0  0  0  0  0  0  0  0  0
   23.9980   -0.7028   -9.6565 C   0  0  0  0  0  0  0  0  0  0  0  0
   24.1042   -0.3263  -11.0018 C   0  0  0  0  0  0  0  0  0  0  0  0
   22.9672   -0.3661  -11.7973 O   0  0  0  0  0  0  0  0  0  0  0  0
   21.7176   -0.5246  -11.2543 C   0  0  0  0  0  0  0  0  0  0  0  0
   21.0847   -1.7417  -11.2956 C   0  0  0  0  0  0  0  0  0  0  0  0
   19.8086   -1.9080  -10.7424 C   0  0  0  0  0  0  0  0  0  0  0  0
   19.1594   -3.0923  -10.7668 F   0  0  0  0  0  0  0  0  0  0  0  0
   19.1855   -0.8358  -10.1514 C   0  0  0  0  0  0  0  0  0  0  0  0
   19.8144    0.4081  -10.1008 C   0  0  0  0  0  0  0  0  0  0  0  0
   19.1263    1.4880   -9.4770 C   0  0  0  0  0  0  0  0  0  0  0  0
   18.5805    2.3819   -8.9699 N   0  0  0  0  0  0  0  0  0  0  0  0
   21.0843    0.5364  -10.6617 C   0  0  0  0  0  0  0  0  0  0  0  0
   25.3133    0.0740  -11.5185 C   0  0  0  0  0  0  0  0  0  0  0  0
   26.4326    0.1079  -10.7154 C   0  0  0  0  0  0  0  0  0  0  0  0
   27.6073    0.5688  -11.4952 C   0  0  2  0  0  0  0  0  0  0  0  0
   27.7026    1.9573  -11.5445 O   0  0  0  0  0  0  0  0  0  0  0  0
   27.1824    0.1117  -12.8984 C   0  0  0  0  0  0  0  0  0  0  0  0
   25.7242    0.5199  -12.8699 C   0  0  1  0  0  0  0  0  0  0  0  0
   25.0004   -0.0820  -13.8729 F   0  0  0  0  0  0  0  0  0  0  0  0
   25.6849    1.8971  -12.9543 F   0  0  0  0  0  0  0  0  0  0  0  0
  1  2  1  1
  2  3  2  0
  2  4  2  0
  2  5  1  6
  5  6  2  0
  6  7  1  0
  7  8  2  0
  8  9  1  0
  9 10  1  0
 10 11  2  0
 11 12  1  0
 12 13  1  0
 12 14  2  0
 14 15  1  0
 15 16  1  0
 16 17  3  0
 15 18  2  0
  8 19  1  0
 19 20  2  0
 20 21  1  0
 21 22  1  6
 23 21  1  1
 23 24  1  0
 24 25  1  6
 24 26  1  0
 20  5  1  0
 18 10  1  0
 24 19  1  0
M  END
$$$$
