_rank3
     RDKit          3D

 26 28  0  0  0  0  0  0  0  0999 V2000
   28.4497    0.8740   -8.3334 C   0  0  0  0  0  0  0  0  0  0  0  0
   27.5959   -0.6811   -8.5478 S   0  0  1  0  0  6  0  0  0  0  0  0
   28.4664   -1.6470   -9.2777 O   0  0  0  0  0  0  0  0  0  0  0  0
   27.2205   -1.2140   -7.1747 O   0  0  0  0  0  0  0  0  0  0  0  0
   26.1485   -0.4114   -9.4795 C   0  0  0  0  0  0  0  0  0  0  0  0
   24.9278   -0.6329   -8.9065 C   0  0  0  0  0  0  0  0  0  0  0  0
   23.7929   -0.4165   -9.6525 C   0  0  0  0  0  0  0  0  0  0  0  0
   23.9050    0.0242  -10.9777 C   0  0  0  0  0  0  0  0  0  0  0  0
   22.7451    0.2357  -11.7106 O   0  0  0  0  0  0  0  0  0  0  0  0
   21.5068   -0.0358  -11.1870 C   0  0  0  0  0  0  0  0  0  0  0  0
   20.7910    0.9393  -10.5384 C   0  0  0  0  0  0  0  0  0  0  0  0
   19.5260    0.6665  -10.0021 C   0  0  0  0  0  0  0  0  0  0  0  0
   18.7968    1.6038   -9.3585 F   0  0  0  0  0  0  0  0  0  0  0  0
   18.9982   -0.5954  -10.1292 C   0  0  0  0  0  0  0  0  0  0  0  0
   19.7122   -1.5980  -10.7853 C   0  0  0  0  0  0  0  0  0  0  0  0
   19.1211   -2.8897  -10.8905 C   0  0  0  0  0  0  0  0  0  0  0  0
   18.6202   -3.9363  -10.9798 N   0  0  0  0  0  0  0  0  0  0  0  0
   20.9681   -1.2901  -11.3064 C   0  0  0  0  0  0  0  0  0  0  0  0
   25.1420    0.2413  -11.5361 C   0  0  0  0  0  0  0  0  0  0  0  0
   26.2838    0.0266  -10.7950 C   0  0  0  0  0  0  0  0  0  0  0  0
   27.4862    0.3267  -11.6102 C   0  0  2  0  0  0  0  0  0  0  0  0
   27.8236    1.6776  -11.5847 O   0  0  0  0  0  0  0  0  0  0  0  0
   26.9258    0.0446  -13.0119 C   0  0  0  0  0  0  0  0  0  0  0  0
   25.5657    0.6976  -12.8801 C   0  0  1  0  0  0  0  0  0  0  0  0
   24.7034    0.2987  -13.8748 F   0  0  0  0  0  0  0  0  0  0  0  0
   25.7673    2.0631  -12.8828 F   0  0  0  0  0  0  0  0  0  0  0  0
  1  2  1  1
  2  3  2  0
  2  4  2  0
  2  5  1  6
  5  6  2  0
  6  7  1  0
  7  8  2  0
  8  9  1  0
  9 10  1  0
 10 11  2  0
 11 12  1  0
 12 13  1  0
 12 14  2  0
 14 15  1  0
 15 16  1  0
 16 17  3  0
 15 18  2  0
  8 19  1  0
 19 20  2  0
 20 21  1  0
 21 22  1  6
 23 21  1  1
 23 24  1  0
 24 25  1  6
 24 26  1  0
 20  5  1  0
 18 10  1  0
 24 19  1  0
M  END
$$$$
