_rank7
     RDKit          3D

 26 28  0  0  0  0  0  0  0  0999 V2000
   28.4186   -1.9608   -8.4238 C   0  0  0  0  0  0  0  0  0  0  0  0
   27.5535   -0.4247   -8.1318 S   0  0  1  0  0  6  0  0  0  0  0  0
   27.1345   -0.3362   -6.7035 O   0  0  0  0  0  0  0  0  0  0  0  0
   28.4789    0.7231   -8.5015 O   0  0  0  0  0  0  0  0  0  0  0  0
   26.1337   -0.3711   -9.1401 C   0  0  0  0  0  0  0  0  0  0  0  0
   24.9228   -0.7293   -8.6176 C   0  0  0  0  0  0  0  0  0  0  0  0
   23.8096   -0.6828   -9.4239 C   0  0  0  0  0  0  0  0  0  0  0  0
   23.9333   -0.2723  -10.7577 C   0  0  0  0  0  0  0  0  0  0  0  0
   22.7953   -0.2335  -11.5519 O   0  0  0  0  0  0  0  0  0  0  0  0
   21.5506   -0.4853  -11.0336 C   0  0  0  0  0  0  0  0  0  0  0  0
   21.0067   -1.7439  -11.0964 C   0  0  0  0  0  0  0  0  0  0  0  0
   19.7359   -2.0056  -10.5685 C   0  0  0  0  0  0  0  0  0  0  0  0
   19.1732   -3.2326  -10.6145 F   0  0  0  0  0  0  0  0  0  0  0  0
   19.0276   -0.9859   -9.9807 C   0  0  0  0  0  0  0  0  0  0  0  0
   19.5653    0.2990   -9.9084 C   0  0  0  0  0  0  0  0  0  0  0  0
   18.7909    1.3214   -9.2890 C   0  0  0  0  0  0  0  0  0  0  0  0
   18.1446    2.1554   -8.7980 N   0  0  0  0  0  0  0  0  0  0  0  0
   20.8327    0.5224  -10.4444 C   0  0  0  0  0  0  0  0  0  0  0  0
   25.1601    0.0841  -11.2646 C   0  0  0  0  0  0  0  0  0  0  0  0
   26.2801    0.0401  -10.4630 C   0  0  0  0  0  0  0  0  0  0  0  0
   27.4754    0.4664  -11.2311 C   0  0  2  0  0  0  0  0  0  0  0  0
   27.6378    1.8495  -11.2397 O   0  0  0  0  0  0  0  0  0  0  0  0
   27.0281    0.0720  -12.6464 C   0  0  0  0  0  0  0  0  0  0  0  0
   25.5915    0.5494  -12.6031 C   0  0  1  0  0  0  0  0  0  0  0  0
   24.8389    0.0131  -13.6220 F   0  0  0  0  0  0  0  0  0  0  0  0
   25.6189    1.9287  -12.6468 F   0  0  0  0  0  0  0  0  0  0  0  0
  1  2  1  1
  2  3  2  0
  2  4  2  0
  2  5  1  6
  5  6  2  0
  6  7  1  0
  7  8  2  0
  8  9  1  0
  9 10  1  0
 10 11  2  0
 11 12  1  0
 12 13  1  0
 12 14  2  0
 14 15  1  0
 15 16  1  0
 16 17  3  0
 15 18  2  0
  8 19  1  0
 19 20  2  0
 20 21  1  0
 21 22  1  6
 23 21  1  1
 23 24  1  0
 24 25  1  6
 24 26  1  0
 20  5  1  0
 18 10  1  0
 24 19  1  0
M  END
$$$$
