_rank15
     RDKit          3D

 26 28  0  0  0  0  0  0  0  0999 V2000
   28.2253    0.9124   -8.0177 C   0  0  0  0  0  0  0  0  0  0  0  0
   27.6947   -0.6401   -8.7257 S   0  0  1  0  0  6  0  0  0  0  0  0
   28.7427   -1.1683   -9.6456 O   0  0  0  0  0  0  0  0  0  0  0  0
   27.4220   -1.6147   -7.5916 O   0  0  0  0  0  0  0  0  0  0  0  0
   26.2288   -0.3809   -9.6310 C   0  0  0  0  0  0  0  0  0  0  0  0
   25.0198   -0.5906   -9.0295 C   0  0  0  0  0  0  0  0  0  0  0  0
   23.8701   -0.3825   -9.7548 C   0  0  0  0  0  0  0  0  0  0  0  0
   23.9555    0.0379  -11.0885 C   0  0  0  0  0  0  0  0  0  0  0  0
   22.7810    0.2413  -11.8002 O   0  0  0  0  0  0  0  0  0  0  0  0
   21.5544   -0.0409  -11.2550 C   0  0  0  0  0  0  0  0  0  0  0  0
   20.8426    0.9274  -10.5921 C   0  0  0  0  0  0  0  0  0  0  0  0
   19.5896    0.6437  -10.0337 C   0  0  0  0  0  0  0  0  0  0  0  0
   18.8647    1.5741   -9.3756 F   0  0  0  0  0  0  0  0  0  0  0  0
   19.0697   -0.6222  -10.1535 C   0  0  0  0  0  0  0  0  0  0  0  0
   19.7798   -1.6180  -10.8240 C   0  0  0  0  0  0  0  0  0  0  0  0
   19.1972   -2.9141  -10.9208 C   0  0  0  0  0  0  0  0  0  0  0  0
   18.7329   -3.9770  -11.0161 N   0  0  0  0  0  0  0  0  0  0  0  0
   21.0236   -1.2993  -11.3669 C   0  0  0  0  0  0  0  0  0  0  0  0
   25.1811    0.2435  -11.6757 C   0  0  0  0  0  0  0  0  0  0  0  0
   26.3376    0.0371  -10.9555 C   0  0  0  0  0  0  0  0  0  0  0  0
   27.5233    0.3219  -11.8000 C   0  0  2  0  0  0  0  0  0  0  0  0
   27.8642    1.6722  -11.8018 O   0  0  0  0  0  0  0  0  0  0  0  0
   26.9332    0.0202  -13.1853 C   0  0  0  0  0  0  0  0  0  0  0  0
   25.5776    0.6785  -13.0350 C   0  0  1  0  0  0  0  0  0  0  0  0
   24.6939    0.2669  -14.0054 F   0  0  0  0  0  0  0  0  0  0  0  0
   25.7821    2.0433  -13.0625 F   0  0  0  0  0  0  0  0  0  0  0  0
  1  2  1  1
  2  3  2  0
  2  4  2  0
  2  5  1  6
  5  6  2  0
  6  7  1  0
  7  8  2  0
  8  9  1  0
  9 10  1  0
 10 11  2  0
 11 12  1  0
 12 13  1  0
 12 14  2  0
 14 15  1  0
 15 16  1  0
 16 17  3  0
 15 18  2  0
  8 19  1  0
 19 20  2  0
 20 21  1  0
 21 22  1  6
 23 21  1  1
 23 24  1  0
 24 25  1  6
 24 26  1  0
 20  5  1  0
 18 10  1  0
 24 19  1  0
M  END
$$$$
