_rank12
     RDKit          3D

 26 28  0  0  0  0  0  0  0  0999 V2000
   28.4900    0.7728   -8.2685 C   0  0  0  0  0  0  0  0  0  0  0  0
   27.7943   -0.8224   -8.6744 S   0  0  1  0  0  6  0  0  0  0  0  0
   28.7646   -1.6132   -9.4847 O   0  0  0  0  0  0  0  0  0  0  0  0
   27.4531   -1.5393   -7.3783 O   0  0  0  0  0  0  0  0  0  0  0  0
   26.3408   -0.5884   -9.6062 C   0  0  0  0  0  0  0  0  0  0  0  0
   25.1295   -0.8957   -9.0532 C   0  0  0  0  0  0  0  0  0  0  0  0
   23.9897   -0.7066   -9.7990 C   0  0  0  0  0  0  0  0  0  0  0  0
   24.0872   -0.2058  -11.1038 C   0  0  0  0  0  0  0  0  0  0  0  0
   22.9226   -0.0234  -11.8371 O   0  0  0  0  0  0  0  0  0  0  0  0
   21.7006   -0.4115  -11.3498 C   0  0  0  0  0  0  0  0  0  0  0  0
   21.2743   -1.7096  -11.4800 C   0  0  0  0  0  0  0  0  0  0  0  0
   20.0271   -2.1104  -10.9839 C   0  0  0  0  0  0  0  0  0  0  0  0
   19.5790   -3.3796  -11.0962 F   0  0  0  0  0  0  0  0  0  0  0  0
   19.2227   -1.1886  -10.3592 C   0  0  0  0  0  0  0  0  0  0  0  0
   19.6405    0.1347  -10.2183 C   0  0  0  0  0  0  0  0  0  0  0  0
   18.7697    1.0517   -9.5629 C   0  0  0  0  0  0  0  0  0  0  0  0
   18.0465    1.8012   -9.0438 N   0  0  0  0  0  0  0  0  0  0  0  0
   20.8879    0.4974  -10.7244 C   0  0  0  0  0  0  0  0  0  0  0  0
   25.3149    0.0974  -11.6423 C   0  0  0  0  0  0  0  0  0  0  0  0
   26.4616   -0.0894  -10.9013 C   0  0  0  0  0  0  0  0  0  0  0  0
   27.6520    0.3056  -11.6933 C   0  0  2  0  0  0  0  0  0  0  0  0
   27.9193    1.6698  -11.6090 O   0  0  0  0  0  0  0  0  0  0  0  0
   27.1156    0.0540  -13.1101 C   0  0  0  0  0  0  0  0  0  0  0  0
   25.7230    0.6306  -12.9627 C   0  0  1  0  0  0  0  0  0  0  0  0
   24.8886    0.2300  -13.9803 F   0  0  0  0  0  0  0  0  0  0  0  0
   25.8540    2.0035  -12.9072 F   0  0  0  0  0  0  0  0  0  0  0  0
  1  2  1  1
  2  3  2  0
  2  4  2  0
  2  5  1  6
  5  6  2  0
  6  7  1  0
  7  8  2  0
  8  9  1  0
  9 10  1  0
 10 11  2  0
 11 12  1  0
 12 13  1  0
 12 14  2  0
 14 15  1  0
 15 16  1  0
 16 17  3  0
 15 18  2  0
  8 19  1  0
 19 20  2  0
 20 21  1  0
 21 22  1  6
 23 21  1  1
 23 24  1  0
 24 25  1  6
 24 26  1  0
 20  5  1  0
 18 10  1  0
 24 19  1  0
M  END
$$$$
