_rank19
     RDKit          3D

 26 28  0  0  0  0  0  0  0  0999 V2000
   27.1332    1.4455   -7.5047 C   0  0  0  0  0  0  0  0  0  0  0  0
   27.4822   -0.0423   -8.4310 S   0  0  1  0  0  6  0  0  0  0  0  0
   28.7124    0.1428   -9.2532 O   0  0  0  0  0  0  0  0  0  0  0  0
   27.6500   -1.1895   -7.4480 O   0  0  0  0  0  0  0  0  0  0  0  0
   26.1414   -0.3799   -9.4911 C   0  0  0  0  0  0  0  0  0  0  0  0
   25.0177   -0.9728   -8.9878 C   0  0  0  0  0  0  0  0  0  0  0  0
   23.9663   -1.2341   -9.8349 C   0  0  0  0  0  0  0  0  0  0  0  0
   24.0627   -0.8911  -11.1898 C   0  0  0  0  0  0  0  0  0  0  0  0
   22.9883   -1.1648  -12.0253 O   0  0  0  0  0  0  0  0  0  0  0  0
   21.6945   -0.9525  -11.6221 C   0  0  0  0  0  0  0  0  0  0  0  0
   20.6537   -1.6046  -12.2346 C   0  0  0  0  0  0  0  0  0  0  0  0
   19.3309   -1.3908  -11.8262 C   0  0  0  0  0  0  0  0  0  0  0  0
   18.2851   -2.0168  -12.4082 F   0  0  0  0  0  0  0  0  0  0  0  0
   19.0763   -0.5158  -10.7983 C   0  0  0  0  0  0  0  0  0  0  0  0
   20.1222    0.1552  -10.1650 C   0  0  0  0  0  0  0  0  0  0  0  0
   19.8056    1.0520   -9.1046 C   0  0  0  0  0  0  0  0  0  0  0  0
   19.5428    1.7991   -8.2520 N   0  0  0  0  0  0  0  0  0  0  0  0
   21.4259   -0.0824  -10.5981 C   0  0  0  0  0  0  0  0  0  0  0  0
   25.2015   -0.2953  -11.6770 C   0  0  0  0  0  0  0  0  0  0  0  0
   26.2593   -0.0304  -10.8345 C   0  0  0  0  0  0  0  0  0  0  0  0
   27.3651    0.6096  -11.5881 C   0  0  2  0  0  0  0  0  0  0  0  0
   27.2101    1.9897  -11.6921 O   0  0  0  0  0  0  0  0  0  0  0  0
   27.0928    0.0346  -12.9859 C   0  0  0  0  0  0  0  0  0  0  0  0
   25.5851    0.1712  -13.0295 C   0  0  1  0  0  0  0  0  0  0  0  0
   25.0274   -0.5868  -14.0328 F   0  0  0  0  0  0  0  0  0  0  0  0
   25.3016    1.5143  -13.1732 F   0  0  0  0  0  0  0  0  0  0  0  0
  1  2  1  1
  2  3  2  0
  2  4  2  0
  2  5  1  6
  5  6  2  0
  6  7  1  0
  7  8  2  0
  8  9  1  0
  9 10  1  0
 10 11  2  0
 11 12  1  0
 12 13  1  0
 12 14  2  0
 14 15  1  0
 15 16  1  0
 16 17  3  0
 15 18  2  0
  8 19  1  0
 19 20  2  0
 20 21  1  0
 21 22  1  6
 23 21  1  1
 23 24  1  0
 24 25  1  6
 24 26  1  0
 20  5  1  0
 18 10  1  0
 24 19  1  0
M  END
$$$$
