_rank16
     RDKit          3D

 26 28  0  0  0  0  0  0  0  0999 V2000
   28.8313   -1.6403   -8.9850 C   0  0  0  0  0  0  0  0  0  0  0  0
   27.7081   -0.4151   -8.3286 S   0  0  1  0  0  6  0  0  0  0  0  0
   27.3242   -0.7683   -6.9317 O   0  0  0  0  0  0  0  0  0  0  0  0
   28.3949    0.9399   -8.3802 O   0  0  0  0  0  0  0  0  0  0  0  0
   26.2721   -0.3740   -9.3144 C   0  0  0  0  0  0  0  0  0  0  0  0
   25.0705   -0.7291   -8.7691 C   0  0  0  0  0  0  0  0  0  0  0  0
   23.9444   -0.6924   -9.5578 C   0  0  0  0  0  0  0  0  0  0  0  0
   24.0459   -0.2948  -10.8973 C   0  0  0  0  0  0  0  0  0  0  0  0
   22.8953   -0.2659  -11.6735 O   0  0  0  0  0  0  0  0  0  0  0  0
   21.6515   -0.4257  -11.1177 C   0  0  0  0  0  0  0  0  0  0  0  0
   21.0479    0.6055  -10.4424 C   0  0  0  0  0  0  0  0  0  0  0  0
   19.7778    0.4467   -9.8733 C   0  0  0  0  0  0  0  0  0  0  0  0
   19.1572    1.4416   -9.2029 F   0  0  0  0  0  0  0  0  0  0  0  0
   19.1310   -0.7591   -9.9950 C   0  0  0  0  0  0  0  0  0  0  0  0
   19.7300   -1.8174  -10.6779 C   0  0  0  0  0  0  0  0  0  0  0  0
   19.0180   -3.0471  -10.7762 C   0  0  0  0  0  0  0  0  0  0  0  0
   18.4392   -4.0549  -10.8366 N   0  0  0  0  0  0  0  0  0  0  0  0
   20.9947   -1.6230  -11.2314 C   0  0  0  0  0  0  0  0  0  0  0  0
   25.2638    0.0587  -11.4274 C   0  0  0  0  0  0  0  0  0  0  0  0
   26.3966    0.0245  -10.6435 C   0  0  0  0  0  0  0  0  0  0  0  0
   27.5785    0.4453  -11.4349 C   0  0  2  0  0  0  0  0  0  0  0  0
   27.7381    1.8286  -11.4596 O   0  0  0  0  0  0  0  0  0  0  0  0
   27.1094    0.0363  -12.8388 C   0  0  0  0  0  0  0  0  0  0  0  0
   25.6728    0.5116  -12.7772 C   0  0  1  0  0  0  0  0  0  0  0  0
   24.9049   -0.0360  -13.7785 F   0  0  0  0  0  0  0  0  0  0  0  0
   25.6968    1.8904  -12.8348 F   0  0  0  0  0  0  0  0  0  0  0  0
  1  2  1  1
  2  3  2  0
  2  4  2  0
  2  5  1  6
  5  6  2  0
  6  7  1  0
  7  8  2  0
  8  9  1  0
  9 10  1  0
 10 11  2  0
 11 12  1  0
 12 13  1  0
 12 14  2  0
 14 15  1  0
 15 16  1  0
 16 17  3  0
 15 18  2  0
  8 19  1  0
 19 20  2  0
 20 21  1  0
 21 22  1  6
 23 21  1  1
 23 24  1  0
 24 25  1  6
 24 26  1  0
 20  5  1  0
 18 10  1  0
 24 19  1  0
M  END
$$$$
