_rank9
     RDKit          3D

 26 28  0  0  0  0  0  0  0  0999 V2000
   28.5849    1.1543   -8.6427 C   0  0  0  0  0  0  0  0  0  0  0  0
   27.6137   -0.2719   -8.1776 S   0  0  1  0  0  6  0  0  0  0  0  0
   28.4163   -1.5166   -8.3505 O   0  0  0  0  0  0  0  0  0  0  0  0
   27.1752   -0.1012   -6.7323 O   0  0  0  0  0  0  0  0  0  0  0  0
   26.2075   -0.3610   -9.2024 C   0  0  0  0  0  0  0  0  0  0  0  0
   24.9858   -0.6214   -8.6483 C   0  0  0  0  0  0  0  0  0  0  0  0
   23.8836   -0.6893   -9.4679 C   0  0  0  0  0  0  0  0  0  0  0  0
   24.0292   -0.4920  -10.8473 C   0  0  0  0  0  0  0  0  0  0  0  0
   22.9019   -0.5654  -11.6542 O   0  0  0  0  0  0  0  0  0  0  0  0
   21.6518   -0.7575  -11.1236 C   0  0  0  0  0  0  0  0  0  0  0  0
   21.0169   -1.9681  -11.2459 C   0  0  0  0  0  0  0  0  0  0  0  0
   19.7402   -2.1687  -10.7056 C   0  0  0  0  0  0  0  0  0  0  0  0
   19.0890   -3.3476  -10.8090 F   0  0  0  0  0  0  0  0  0  0  0  0
   19.1185   -1.1371  -10.0449 C   0  0  0  0  0  0  0  0  0  0  0  0
   19.7495    0.0996   -9.9115 C   0  0  0  0  0  0  0  0  0  0  0  0
   19.0627    1.1368   -9.2177 C   0  0  0  0  0  0  0  0  0  0  0  0
   18.5186    1.9955   -8.6513 N   0  0  0  0  0  0  0  0  0  0  0  0
   21.0199    0.2628  -10.4620 C   0  0  0  0  0  0  0  0  0  0  0  0
   25.2666   -0.2312  -11.3857 C   0  0  0  0  0  0  0  0  0  0  0  0
   26.3758   -0.1616  -10.5709 C   0  0  0  0  0  0  0  0  0  0  0  0
   27.5858    0.1282  -11.3784 C   0  0  2  0  0  0  0  0  0  0  0  0
   27.7653    1.4915  -11.5990 O   0  0  0  0  0  0  0  0  0  0  0  0
   27.1517   -0.4765  -12.7217 C   0  0  0  0  0  0  0  0  0  0  0  0
   25.7206    0.0164  -12.7737 C   0  0  1  0  0  0  0  0  0  0  0  0
   24.9745   -0.6639  -13.7079 F   0  0  0  0  0  0  0  0  0  0  0  0
   25.7655    1.3718  -13.0304 F   0  0  0  0  0  0  0  0  0  0  0  0
  1  2  1  1
  2  3  2  0
  2  4  2  0
  2  5  1  6
  5  6  2  0
  6  7  1  0
  7  8  2  0
  8  9  1  0
  9 10  1  0
 10 11  2  0
 11 12  1  0
 12 13  1  0
 12 14  2  0
 14 15  1  0
 15 16  1  0
 16 17  3  0
 15 18  2  0
  8 19  1  0
 19 20  2  0
 20 21  1  0
 21 22  1  6
 23 21  1  1
 23 24  1  0
 24 25  1  6
 24 26  1  0
 20  5  1  0
 18 10  1  0
 24 19  1  0
M  END
$$$$
