_rank14
     RDKit          3D

 21 22  0  0  0  0  0  0  0  0999 V2000
   28.8138    0.0127   -7.1322 N   0  0  0  0  0  0  0  0  0  0  0  0
   27.9454   -0.0415   -7.9292 C   0  0  0  0  0  0  0  0  0  0  0  0
   26.8989   -0.0855   -8.9047 C   0  0  0  0  0  0  0  0  0  0  0  0
   25.6081   -0.3262   -8.4484 C   0  0  0  0  0  0  0  0  0  0  0  0
   24.5586   -0.4002   -9.3093 C   0  0  0  0  0  0  0  0  0  0  0  0
   24.8040   -0.2285  -10.6745 C   0  0  0  0  0  0  0  0  0  0  0  0
   23.7046   -0.3155  -11.4903 O   0  0  0  0  0  0  0  0  0  0  0  0
   22.4692   -0.8529  -11.1132 C   0  0  0  0  0  0  0  0  0  0  0  0
   21.8070   -1.7316  -11.9501 C   0  0  0  0  0  0  0  0  0  0  0  0
   20.5704   -2.2644  -11.5816 C   0  0  0  0  0  0  0  0  0  0  0  0
   19.9176   -3.1351  -12.4842 N   0  0  0  0  0  0  0  0  0  0  0  0
   20.0279   -1.8950  -10.3668 C   0  0  0  0  0  0  0  0  0  0  0  0
   20.6814   -1.0105   -9.5132 C   0  0  0  0  0  0  0  0  0  0  0  0
   20.1416   -0.6464   -8.3256 F   0  0  0  0  0  0  0  0  0  0  0  0
   21.9072   -0.4912   -9.8939 C   0  0  0  0  0  0  0  0  0  0  0  0
   26.0596    0.0120  -11.1334 C   0  0  0  0  0  0  0  0  0  0  0  0
   26.4085    0.3119  -12.5400 C   0  0  2  0  0  0  0  0  0  0  0  0
   26.3654    1.5851  -12.9483 F   0  0  0  0  0  0  0  0  0  0  0  0
   25.7455   -0.5556  -13.4240 F   0  0  0  0  0  0  0  0  0  0  0  0
   27.7600   -0.1164  -12.6597 F   0  0  0  0  0  0  0  0  0  0  0  0
   27.1129    0.0802  -10.2261 C   0  0  0  0  0  0  0  0  0  0  0  0
  1  2  3  0
  2  3  1  0
  3  4  2  0
  4  5  1  0
  5  6  2  0
  6  7  1  0
  7  8  1  0
  8  9  2  0
  9 10  1  0
 10 11  1  0
 10 12  2  0
 12 13  1  0
 13 14  1  0
 13 15  2  0
  6 16  1  0
 16 17  1  0
 17 18  1  6
 17 19  1  0
 17 20  1  0
 16 21  2  0
 21  3  1  0
 15  8  1  0
M  END
$$$$
