_rank12
     RDKit          3D

 21 22  0  0  0  0  0  0  0  0999 V2000
   28.7178   -0.8808   -7.1621 N   0  0  0  0  0  0  0  0  0  0  0  0
   27.8267   -0.6882   -7.9111 C   0  0  0  0  0  0  0  0  0  0  0  0
   26.7343   -0.4418   -8.8025 C   0  0  0  0  0  0  0  0  0  0  0  0
   25.4491   -0.5349   -8.2810 C   0  0  0  0  0  0  0  0  0  0  0  0
   24.3551   -0.3321   -9.0622 C   0  0  0  0  0  0  0  0  0  0  0  0
   24.5486   -0.0258  -10.4121 C   0  0  0  0  0  0  0  0  0  0  0  0
   23.4059    0.1661  -11.1465 O   0  0  0  0  0  0  0  0  0  0  0  0
   22.1470   -0.3468  -10.8160 C   0  0  0  0  0  0  0  0  0  0  0  0
   21.9224   -1.7106  -10.8395 C   0  0  0  0  0  0  0  0  0  0  0  0
   20.6657   -2.2266  -10.5180 C   0  0  0  0  0  0  0  0  0  0  0  0
   20.4762   -3.6262  -10.5857 N   0  0  0  0  0  0  0  0  0  0  0  0
   19.6581   -1.3466  -10.1769 C   0  0  0  0  0  0  0  0  0  0  0  0
   19.8677    0.0295  -10.1495 C   0  0  0  0  0  0  0  0  0  0  0  0
   18.8738    0.8888   -9.8206 F   0  0  0  0  0  0  0  0  0  0  0  0
   21.1201    0.5249  -10.4711 C   0  0  0  0  0  0  0  0  0  0  0  0
   25.7990    0.0729  -10.9336 C   0  0  0  0  0  0  0  0  0  0  0  0
   26.1131    0.4939  -12.3171 C   0  0  2  0  0  0  0  0  0  0  0  0
   26.1465    1.8028  -12.5914 F   0  0  0  0  0  0  0  0  0  0  0  0
   25.3547   -0.2292  -13.2528 F   0  0  0  0  0  0  0  0  0  0  0  0
   27.4242   -0.0106  -12.5425 F   0  0  0  0  0  0  0  0  0  0  0  0
   26.8983   -0.1421  -10.1073 C   0  0  0  0  0  0  0  0  0  0  0  0
  1  2  3  0
  2  3  1  0
  3  4  2  0
  4  5  1  0
  5  6  2  0
  6  7  1  0
  7  8  1  0
  8  9  2  0
  9 10  1  0
 10 11  1  0
 10 12  2  0
 12 13  1  0
 13 14  1  0
 13 15  2  0
  6 16  1  0
 16 17  1  0
 17 18  1  1
 17 19  1  0
 17 20  1  0
 16 21  2  0
 21  3  1  0
 15  8  1  0
M  END
$$$$
