_rank6
     RDKit          3D

 21 22  0  0  0  0  0  0  0  0999 V2000
   28.5598   -0.2723   -6.9863 N   0  0  0  0  0  0  0  0  0  0  0  0
   27.6894   -0.2613   -7.7828 C   0  0  0  0  0  0  0  0  0  0  0  0
   26.6316   -0.2720   -8.7470 C   0  0  0  0  0  0  0  0  0  0  0  0
   25.3458   -0.5263   -8.2838 C   0  0  0  0  0  0  0  0  0  0  0  0
   24.2862   -0.5707   -9.1343 C   0  0  0  0  0  0  0  0  0  0  0  0
   24.5159   -0.3541  -10.4959 C   0  0  0  0  0  0  0  0  0  0  0  0
   23.4070   -0.4130  -11.3013 O   0  0  0  0  0  0  0  0  0  0  0  0
   22.0998   -0.6217  -10.8486 C   0  0  0  0  0  0  0  0  0  0  0  0
   21.5934   -1.9042  -10.7492 C   0  0  0  0  0  0  0  0  0  0  0  0
   20.2870   -2.1170  -10.3054 C   0  0  0  0  0  0  0  0  0  0  0  0
   19.8039   -3.4446  -10.2494 N   0  0  0  0  0  0  0  0  0  0  0  0
   19.5173   -1.0213   -9.9690 C   0  0  0  0  0  0  0  0  0  0  0  0
   20.0118    0.2765  -10.0645 C   0  0  0  0  0  0  0  0  0  0  0  0
   19.2501    1.3482   -9.7396 F   0  0  0  0  0  0  0  0  0  0  0  0
   21.3097    0.4702  -10.5065 C   0  0  0  0  0  0  0  0  0  0  0  0
   25.7665   -0.0998  -10.9613 C   0  0  0  0  0  0  0  0  0  0  0  0
   26.0993    0.2461  -12.3612 C   0  0  2  0  0  0  0  0  0  0  0  0
   25.2937   -0.1947  -13.3339 F   0  0  0  0  0  0  0  0  0  0  0  0
   27.4546   -0.0003  -12.6369 F   0  0  0  0  0  0  0  0  0  0  0  0
   26.0433    1.6675  -12.3885 F   0  0  0  0  0  0  0  0  0  0  0  0
   26.8303   -0.0628  -10.0646 C   0  0  0  0  0  0  0  0  0  0  0  0
  1  2  3  0
  2  3  1  0
  3  4  2  0
  4  5  1  0
  5  6  2  0
  6  7  1  0
  7  8  1  0
  8  9  2  0
  9 10  1  0
 10 11  1  0
 10 12  2  0
 12 13  1  0
 13 14  1  0
 13 15  2  0
  6 16  1  0
 16 17  1  0
 17 18  1  6
 17 19  1  0
 17 20  1  0
 16 21  2  0
 21  3  1  0
 15  8  1  0
M  END
$$$$
