_rank11
     RDKit          3D

 21 22  0  0  0  0  0  0  0  0999 V2000
   28.8533    0.1611   -7.3590 N   0  0  0  0  0  0  0  0  0  0  0  0
   27.9888    0.0051   -8.1466 C   0  0  0  0  0  0  0  0  0  0  0  0
   26.9438   -0.1616   -9.1104 C   0  0  0  0  0  0  0  0  0  0  0  0
   25.8212   -0.8820   -8.7192 C   0  0  0  0  0  0  0  0  0  0  0  0
   24.7899   -1.1010   -9.5774 C   0  0  0  0  0  0  0  0  0  0  0  0
   24.8805   -0.5837  -10.8727 C   0  0  0  0  0  0  0  0  0  0  0  0
   23.8089   -0.8397  -11.6900 O   0  0  0  0  0  0  0  0  0  0  0  0
   22.4751   -0.8834  -11.2700 C   0  0  0  0  0  0  0  0  0  0  0  0
   21.9007    0.2157  -10.6590 C   0  0  0  0  0  0  0  0  0  0  0  0
   20.5725    0.1741  -10.2312 C   0  0  0  0  0  0  0  0  0  0  0  0
   20.0386    1.3124   -9.5843 N   0  0  0  0  0  0  0  0  0  0  0  0
   19.8499   -0.9849  -10.4329 C   0  0  0  0  0  0  0  0  0  0  0  0
   20.4137   -2.1007  -11.0455 C   0  0  0  0  0  0  0  0  0  0  0  0
   19.7022   -3.2375  -11.2348 F   0  0  0  0  0  0  0  0  0  0  0  0
   21.7325   -2.0428  -11.4639 C   0  0  0  0  0  0  0  0  0  0  0  0
   25.9696    0.1261  -11.2666 C   0  0  0  0  0  0  0  0  0  0  0  0
   26.1166    0.8031  -12.5744 C   0  0  2  0  0  0  0  0  0  0  0  0
   27.1084    1.6882  -12.7242 F   0  0  0  0  0  0  0  0  0  0  0  0
   24.8841    1.2988  -13.0313 F   0  0  0  0  0  0  0  0  0  0  0  0
   26.3673   -0.2592  -13.4871 F   0  0  0  0  0  0  0  0  0  0  0  0
   27.0093    0.3313  -10.3642 C   0  0  0  0  0  0  0  0  0  0  0  0
  1  2  3  0
  2  3  1  0
  3  4  2  0
  4  5  1  0
  5  6  2  0
  6  7  1  0
  7  8  1  0
  8  9  2  0
  9 10  1  0
 10 11  1  0
 10 12  2  0
 12 13  1  0
 13 14  1  0
 13 15  2  0
  6 16  1  0
 16 17  1  0
 17 18  1  1
 17 19  1  0
 17 20  1  0
 16 21  2  0
 21  3  1  0
 15  8  1  0
M  END
$$$$
