_rank13
     RDKit          3D

 21 22  0  0  0  0  0  0  0  0999 V2000
   28.6892    0.2881   -7.0370 N   0  0  0  0  0  0  0  0  0  0  0  0
   27.8040    0.0831   -7.7896 C   0  0  0  0  0  0  0  0  0  0  0  0
   26.7285   -0.1884   -8.6942 C   0  0  0  0  0  0  0  0  0  0  0  0
   25.5689   -0.7407   -8.1627 C   0  0  0  0  0  0  0  0  0  0  0  0
   24.5060   -1.0444   -8.9540 C   0  0  0  0  0  0  0  0  0  0  0  0
   24.6021   -0.7890  -10.3248 C   0  0  0  0  0  0  0  0  0  0  0  0
   23.4973   -1.1183  -11.0684 O   0  0  0  0  0  0  0  0  0  0  0  0
   22.1727   -0.9339  -10.6578 C   0  0  0  0  0  0  0  0  0  0  0  0
   21.3279   -2.0196  -10.5219 C   0  0  0  0  0  0  0  0  0  0  0  0
   20.0031   -1.8397  -10.1199 C   0  0  0  0  0  0  0  0  0  0  0  0
   19.1691   -2.9775  -10.0245 N   0  0  0  0  0  0  0  0  0  0  0  0
   19.5596   -0.5579   -9.8620 C   0  0  0  0  0  0  0  0  0  0  0  0
   20.3973    0.5461   -9.9952 C   0  0  0  0  0  0  0  0  0  0  0  0
   19.9552    1.8020   -9.7473 F   0  0  0  0  0  0  0  0  0  0  0  0
   21.7085    0.3502  -10.3948 C   0  0  0  0  0  0  0  0  0  0  0  0
   25.7275   -0.2452  -10.8566 C   0  0  0  0  0  0  0  0  0  0  0  0
   25.8903    0.1603  -12.2706 C   0  0  2  0  0  0  0  0  0  0  0  0
   24.9324    0.9060  -12.8325 F   0  0  0  0  0  0  0  0  0  0  0  0
   26.2572   -0.9325  -13.0735 F   0  0  0  0  0  0  0  0  0  0  0  0
   27.0787    0.9427  -12.2709 F   0  0  0  0  0  0  0  0  0  0  0  0
   26.7988    0.0528  -10.0195 C   0  0  0  0  0  0  0  0  0  0  0  0
  1  2  3  0
  2  3  1  0
  3  4  2  0
  4  5  1  0
  5  6  2  0
  6  7  1  0
  7  8  1  0
  8  9  2  0
  9 10  1  0
 10 11  1  0
 10 12  2  0
 12 13  1  0
 13 14  1  0
 13 15  2  0
  6 16  1  0
 16 17  1  0
 17 18  1  6
 17 19  1  0
 17 20  1  0
 16 21  2  0
 21  3  1  0
 15  8  1  0
M  END
$$$$
