_rank8
     RDKit          3D

 21 22  0  0  0  0  0  0  0  0999 V2000
   28.4385    0.6790   -6.9830 N   0  0  0  0  0  0  0  0  0  0  0  0
   27.6238    0.4876   -7.8147 C   0  0  0  0  0  0  0  0  0  0  0  0
   26.6188    0.2660   -8.8094 C   0  0  0  0  0  0  0  0  0  0  0  0
   25.3514   -0.0976   -8.3690 C   0  0  0  0  0  0  0  0  0  0  0  0
   24.3434   -0.3426   -9.2476 C   0  0  0  0  0  0  0  0  0  0  0  0
   24.6077   -0.2214  -10.6147 C   0  0  0  0  0  0  0  0  0  0  0  0
   23.5503   -0.4827  -11.4488 O   0  0  0  0  0  0  0  0  0  0  0  0
   22.2078   -0.5038  -11.0558 C   0  0  0  0  0  0  0  0  0  0  0  0
   21.4866   -1.6822  -11.1029 C   0  0  0  0  0  0  0  0  0  0  0  0
   20.1445   -1.7065  -10.7192 C   0  0  0  0  0  0  0  0  0  0  0  0
   19.4404   -2.9290  -10.8134 N   0  0  0  0  0  0  0  0  0  0  0  0
   19.5583   -0.5314  -10.2929 C   0  0  0  0  0  0  0  0  0  0  0  0
   20.2703    0.6637  -10.2408 C   0  0  0  0  0  0  0  0  0  0  0  0
   19.6884    1.8151   -9.8282 F   0  0  0  0  0  0  0  0  0  0  0  0
   21.6006    0.6706  -10.6249 C   0  0  0  0  0  0  0  0  0  0  0  0
   25.8402    0.1377  -11.0585 C   0  0  0  0  0  0  0  0  0  0  0  0
   26.1937    0.3958  -12.4723 C   0  0  2  0  0  0  0  0  0  0  0  0
   27.4321    0.8180  -12.7512 F   0  0  0  0  0  0  0  0  0  0  0  0
   25.2091    1.1693  -13.1092 F   0  0  0  0  0  0  0  0  0  0  0  0
   26.0345   -0.8688  -13.1046 F   0  0  0  0  0  0  0  0  0  0  0  0
   26.8513    0.3801  -10.1331 C   0  0  0  0  0  0  0  0  0  0  0  0
  1  2  3  0
  2  3  1  0
  3  4  2  0
  4  5  1  0
  5  6  2  0
  6  7  1  0
  7  8  1  0
  8  9  2  0
  9 10  1  0
 10 11  1  0
 10 12  2  0
 12 13  1  0
 13 14  1  0
 13 15  2  0
  6 16  1  0
 16 17  1  0
 17 18  1  1
 17 19  1  0
 17 20  1  0
 16 21  2  0
 21  3  1  0
 15  8  1  0
M  END
$$$$
