_rank9
     RDKit          3D

 21 22  0  0  0  0  0  0  0  0999 V2000
   28.6165    0.5145   -7.0809 N   0  0  0  0  0  0  0  0  0  0  0  0
   27.7711    0.3404   -7.8853 C   0  0  0  0  0  0  0  0  0  0  0  0
   26.7382    0.1095   -8.8488 C   0  0  0  0  0  0  0  0  0  0  0  0
   25.5485   -0.4453   -8.3914 C   0  0  0  0  0  0  0  0  0  0  0  0
   24.5222   -0.7120   -9.2422 C   0  0  0  0  0  0  0  0  0  0  0  0
   24.6874   -0.4155  -10.5981 C   0  0  0  0  0  0  0  0  0  0  0  0
   23.6167   -0.7088  -11.4041 O   0  0  0  0  0  0  0  0  0  0  0  0
   22.2759   -0.6331  -11.0120 C   0  0  0  0  0  0  0  0  0  0  0  0
   21.5055   -1.7787  -10.9397 C   0  0  0  0  0  0  0  0  0  0  0  0
   20.1650   -1.7072  -10.5565 C   0  0  0  0  0  0  0  0  0  0  0  0
   19.4096   -2.9021  -10.5268 N   0  0  0  0  0  0  0  0  0  0  0  0
   19.6303   -0.4712  -10.2521 C   0  0  0  0  0  0  0  0  0  0  0  0
   20.3923    0.6919  -10.3210 C   0  0  0  0  0  0  0  0  0  0  0  0
   19.8609    1.9027  -10.0277 F   0  0  0  0  0  0  0  0  0  0  0  0
   21.7203    0.6035  -10.7029 C   0  0  0  0  0  0  0  0  0  0  0  0
   25.8428    0.1312  -11.0577 C   0  0  0  0  0  0  0  0  0  0  0  0
   26.0783    0.5782  -12.4487 C   0  0  2  0  0  0  0  0  0  0  0  0
   27.3414    0.7187  -12.8662 F   0  0  0  0  0  0  0  0  0  0  0  0
   25.2834    1.6922  -12.7658 F   0  0  0  0  0  0  0  0  0  0  0  0
   25.4898   -0.4440  -13.2444 F   0  0  0  0  0  0  0  0  0  0  0  0
   26.8752    0.3906  -10.1609 C   0  0  0  0  0  0  0  0  0  0  0  0
  1  2  3  0
  2  3  1  0
  3  4  2  0
  4  5  1  0
  5  6  2  0
  6  7  1  0
  7  8  1  0
  8  9  2  0
  9 10  1  0
 10 11  1  0
 10 12  2  0
 12 13  1  0
 13 14  1  0
 13 15  2  0
  6 16  1  0
 16 17  1  0
 17 18  1  6
 17 19  1  0
 17 20  1  0
 16 21  2  0
 21  3  1  0
 15  8  1  0
M  END
$$$$
