_rank17
     RDKit          3D

 19 20  0  0  0  0  0  0  0  0999 V2000
   28.8257   -0.4358   -9.9840 C   0  0  0  0  0  0  0  0  0  0  0  0
   27.7049   -0.6387   -8.5983 S   0  0  1  0  0  6  0  0  0  0  0  0
   27.9128   -1.9755   -7.9728 O   0  0  0  0  0  0  0  0  0  0  0  0
   28.0024    0.4564   -7.6123 O   0  0  0  0  0  0  0  0  0  0  0  0
   26.0879   -0.4463   -9.2124 C   0  0  0  0  0  0  0  0  0  0  0  0
   25.6366   -1.2463  -10.2294 C   0  0  0  0  0  0  0  0  0  0  0  0
   24.3280   -1.0538  -10.6898 C   0  0  0  0  0  0  0  0  0  0  0  0
   23.5494   -0.0660  -10.0996 C   0  0  0  0  0  0  0  0  0  0  0  0
   22.2501    0.1823  -10.4976 O   0  0  0  0  0  0  0  0  0  0  0  0
   21.4331   -0.8696  -10.8500 C   0  0  0  0  0  0  0  0  0  0  0  0
   21.1463   -1.1298  -12.1733 C   0  0  0  0  0  0  0  0  0  0  0  0
   20.3242   -2.1897  -12.5462 C   0  0  0  0  0  0  0  0  0  0  0  0
   20.0557   -2.4271  -13.8530 F   0  0  0  0  0  0  0  0  0  0  0  0
   19.8033   -2.9754  -11.5401 C   0  0  0  0  0  0  0  0  0  0  0  0
   20.0802   -2.7313  -10.1910 C   0  0  0  0  0  0  0  0  0  0  0  0
   20.9014   -1.6686   -9.8698 C   0  0  0  0  0  0  0  0  0  0  0  0
   21.2183   -1.4112   -8.5187 N   0  0  0  0  0  0  0  0  0  0  0  0
   24.0442    0.6971   -9.0969 N   0  0  0  0  0  0  0  0  0  0  0  0
   25.2844    0.5181   -8.6568 C   0  0  0  0  0  0  0  0  0  0  0  0
  1  2  1  6
  2  3  2  0
  2  4  2  0
  2  5  1  6
  5  6  2  0
  6  7  1  0
  7  8  2  0
  8  9  1  0
  9 10  1  0
 10 11  2  0
 11 12  1  0
 12 13  1  0
 12 14  2  0
 14 15  1  0
 15 16  2  0
 16 17  1  0
  8 18  1  0
 18 19  2  0
 19  5  1  0
 16 10  1  0
M  END
$$$$
