_rank11
     RDKit          3D

 19 20  0  0  0  0  0  0  0  0999 V2000
   27.7162    0.6301  -10.4705 C   0  0  0  0  0  0  0  0  0  0  0  0
   27.1386   -0.0241   -8.9033 S   0  0  1  0  0  6  0  0  0  0  0  0
   28.0448   -1.1163   -8.4478 O   0  0  0  0  0  0  0  0  0  0  0  0
   27.1384    1.1075   -7.9137 O   0  0  0  0  0  0  0  0  0  0  0  0
   25.5091   -0.5837   -9.1489 C   0  0  0  0  0  0  0  0  0  0  0  0
   25.2786   -1.8435   -9.6365 C   0  0  0  0  0  0  0  0  0  0  0  0
   23.9502   -2.2486   -9.8171 C   0  0  0  0  0  0  0  0  0  0  0  0
   22.9303   -1.3613   -9.4966 C   0  0  0  0  0  0  0  0  0  0  0  0
   21.5965   -1.6885   -9.6457 O   0  0  0  0  0  0  0  0  0  0  0  0
   20.7135   -0.7453  -10.1241 C   0  0  0  0  0  0  0  0  0  0  0  0
   20.0401    0.0943   -9.2622 C   0  0  0  0  0  0  0  0  0  0  0  0
   19.1460    1.0537   -9.7295 C   0  0  0  0  0  0  0  0  0  0  0  0
   18.4949    1.8686   -8.8644 F   0  0  0  0  0  0  0  0  0  0  0  0
   18.9557    1.1359  -11.0926 C   0  0  0  0  0  0  0  0  0  0  0  0
   19.6276    0.2955  -11.9863 C   0  0  0  0  0  0  0  0  0  0  0  0
   20.5052   -0.6406  -11.4759 C   0  0  0  0  0  0  0  0  0  0  0  0
   21.2157   -1.4870  -12.3538 N   0  0  0  0  0  0  0  0  0  0  0  0
   23.2131   -0.1272   -9.0175 N   0  0  0  0  0  0  0  0  0  0  0  0
   24.4712    0.2614   -8.8443 C   0  0  0  0  0  0  0  0  0  0  0  0
  1  2  1  6
  2  3  2  0
  2  4  2  0
  2  5  1  6
  5  6  2  0
  6  7  1  0
  7  8  2  0
  8  9  1  0
  9 10  1  0
 10 11  2  0
 11 12  1  0
 12 13  1  0
 12 14  2  0
 14 15  1  0
 15 16  2  0
 16 17  1  0
  8 18  1  0
 18 19  2  0
 19  5  1  0
 16 10  1  0
M  END
$$$$
