_rank20
     RDKit          3D

 19 20  0  0  0  0  0  0  0  0999 V2000
   28.7214    0.5612  -10.1932 C   0  0  0  0  0  0  0  0  0  0  0  0
   28.0263    0.2353   -8.5719 S   0  0  1  0  0  6  0  0  0  0  0  0
   28.7331   -0.9159   -7.9421 O   0  0  0  0  0  0  0  0  0  0  0  0
   28.2041    1.4786   -7.7458 O   0  0  0  0  0  0  0  0  0  0  0  0
   26.3290   -0.0791   -8.7938 C   0  0  0  0  0  0  0  0  0  0  0  0
   25.5648   -0.5130   -7.7424 C   0  0  0  0  0  0  0  0  0  0  0  0
   24.2038   -0.7525   -7.9700 C   0  0  0  0  0  0  0  0  0  0  0  0
   23.6910   -0.5416   -9.2439 C   0  0  0  0  0  0  0  0  0  0  0  0
   22.3598   -0.7541   -9.5456 O   0  0  0  0  0  0  0  0  0  0  0  0
   21.9732   -0.8908  -10.8609 C   0  0  0  0  0  0  0  0  0  0  0  0
   22.6506   -0.2373  -11.8686 C   0  0  0  0  0  0  0  0  0  0  0  0
   22.2739   -0.3662  -13.2026 C   0  0  0  0  0  0  0  0  0  0  0  0
   22.9541    0.2853  -14.1770 F   0  0  0  0  0  0  0  0  0  0  0  0
   21.1933   -1.1750  -13.4835 C   0  0  0  0  0  0  0  0  0  0  0  0
   20.4909   -1.8482  -12.4785 C   0  0  0  0  0  0  0  0  0  0  0  0
   20.9019   -1.6899  -11.1696 C   0  0  0  0  0  0  0  0  0  0  0  0
   20.2280   -2.3748  -10.1358 N   0  0  0  0  0  0  0  0  0  0  0  0
   24.4904   -0.1117  -10.2483 N   0  0  0  0  0  0  0  0  0  0  0  0
   25.7814    0.1171  -10.0372 C   0  0  0  0  0  0  0  0  0  0  0  0
  1  2  1  6
  2  3  2  0
  2  4  2  0
  2  5  1  6
  5  6  2  0
  6  7  1  0
  7  8  2  0
  8  9  1  0
  9 10  1  0
 10 11  2  0
 11 12  1  0
 12 13  1  0
 12 14  2  0
 14 15  1  0
 15 16  2  0
 16 17  1  0
  8 18  1  0
 18 19  2  0
 19  5  1  0
 16 10  1  0
M  END
$$$$
