_rank16
     RDKit          3D

 19 20  0  0  0  0  0  0  0  0999 V2000
   27.4976   -0.7260   -7.0518 C   0  0  0  0  0  0  0  0  0  0  0  0
   27.6756   -0.1444   -8.7393 S   0  0  1  0  0  6  0  0  0  0  0  0
   28.0549    1.2970   -8.7389 O   0  0  0  0  0  0  0  0  0  0  0  0
   28.7482   -0.9713   -9.3916 O   0  0  0  0  0  0  0  0  0  0  0  0
   26.1566   -0.4224   -9.5420 C   0  0  0  0  0  0  0  0  0  0  0  0
   25.4389    0.6314  -10.0443 C   0  0  0  0  0  0  0  0  0  0  0  0
   24.2223    0.3575  -10.6818 C   0  0  0  0  0  0  0  0  0  0  0  0
   23.7983   -0.9622  -10.7761 C   0  0  0  0  0  0  0  0  0  0  0  0
   22.6118   -1.3115  -11.3912 O   0  0  0  0  0  0  0  0  0  0  0  0
   21.4174   -0.8635  -10.8706 C   0  0  0  0  0  0  0  0  0  0  0  0
   21.3120   -0.5155   -9.5405 C   0  0  0  0  0  0  0  0  0  0  0  0
   20.1132   -0.0594   -8.9993 C   0  0  0  0  0  0  0  0  0  0  0  0
   20.0322    0.2772   -7.6892 F   0  0  0  0  0  0  0  0  0  0  0  0
   19.0277    0.0328   -9.8445 C   0  0  0  0  0  0  0  0  0  0  0  0
   19.1105   -0.3140  -11.1969 C   0  0  0  0  0  0  0  0  0  0  0  0
   20.3211   -0.7609  -11.6887 C   0  0  0  0  0  0  0  0  0  0  0  0
   20.4422   -1.0960  -13.0543 N   0  0  0  0  0  0  0  0  0  0  0  0
   24.5464   -1.9668  -10.2626 N   0  0  0  0  0  0  0  0  0  0  0  0
   25.7008   -1.7121   -9.6575 C   0  0  0  0  0  0  0  0  0  0  0  0
  1  2  1  6
  2  3  2  0
  2  4  2  0
  2  5  1  6
  5  6  2  0
  6  7  1  0
  7  8  2  0
  8  9  1  0
  9 10  1  0
 10 11  2  0
 11 12  1  0
 12 13  1  0
 12 14  2  0
 14 15  1  0
 15 16  2  0
 16 17  1  0
  8 18  1  0
 18 19  2  0
 19  5  1  0
 16 10  1  0
M  END
$$$$
