_rank5
     RDKit          3D

 19 20  0  0  0  0  0  0  0  0999 V2000
   27.5498   -1.4245   -7.3711 C   0  0  0  0  0  0  0  0  0  0  0  0
   27.6120   -0.1985   -8.6791 S   0  0  1  0  0  6  0  0  0  0  0  0
   27.6752    1.1680   -8.0873 O   0  0  0  0  0  0  0  0  0  0  0  0
   28.8411   -0.4749   -9.4995 O   0  0  0  0  0  0  0  0  0  0  0  0
   26.1931   -0.4225   -9.6617 C   0  0  0  0  0  0  0  0  0  0  0  0
   26.3131   -0.6088  -11.0140 C   0  0  0  0  0  0  0  0  0  0  0  0
   25.1426   -0.7847  -11.7626 C   0  0  0  0  0  0  0  0  0  0  0  0
   23.9184   -0.7623  -11.1060 C   0  0  0  0  0  0  0  0  0  0  0  0
   22.7215   -0.9301  -11.7750 O   0  0  0  0  0  0  0  0  0  0  0  0
   21.5336   -0.7769  -11.0940 C   0  0  0  0  0  0  0  0  0  0  0  0
   20.8112   -1.8747  -10.6767 C   0  0  0  0  0  0  0  0  0  0  0  0
   19.6102   -1.7372   -9.9860 C   0  0  0  0  0  0  0  0  0  0  0  0
   18.9165   -2.8302   -9.5852 F   0  0  0  0  0  0  0  0  0  0  0  0
   19.1651   -0.4573   -9.7320 C   0  0  0  0  0  0  0  0  0  0  0  0
   19.8807    0.6713  -10.1450 C   0  0  0  0  0  0  0  0  0  0  0  0
   21.0671    0.4851  -10.8267 C   0  0  0  0  0  0  0  0  0  0  0  0
   21.8236    1.6042  -11.2357 N   0  0  0  0  0  0  0  0  0  0  0  0
   23.8558   -0.5749   -9.7668 N   0  0  0  0  0  0  0  0  0  0  0  0
   24.9630   -0.4079   -9.0527 C   0  0  0  0  0  0  0  0  0  0  0  0
  1  2  1  6
  2  3  2  0
  2  4  2  0
  2  5  1  6
  5  6  2  0
  6  7  1  0
  7  8  2  0
  8  9  1  0
  9 10  1  0
 10 11  2  0
 11 12  1  0
 12 13  1  0
 12 14  2  0
 14 15  1  0
 15 16  2  0
 16 17  1  0
  8 18  1  0
 18 19  2  0
 19  5  1  0
 16 10  1  0
M  END
$$$$
