_rank19
     RDKit          3D

 19 20  0  0  0  0  0  0  0  0999 V2000
   28.5675   -2.7141   -7.6309 C   0  0  0  0  0  0  0  0  0  0  0  0
   27.7944   -1.1914   -7.0818 S   0  0  1  0  0  6  0  0  0  0  0  0
   27.1041   -1.4168   -5.7802 O   0  0  0  0  0  0  0  0  0  0  0  0
   28.8797   -0.1621   -6.9314 O   0  0  0  0  0  0  0  0  0  0  0  0
   26.6903   -0.6953   -8.3323 C   0  0  0  0  0  0  0  0  0  0  0  0
   25.4209   -1.2096   -8.3755 C   0  0  0  0  0  0  0  0  0  0  0  0
   24.5689   -0.7800   -9.4006 C   0  0  0  0  0  0  0  0  0  0  0  0
   25.0449    0.1428  -10.3238 C   0  0  0  0  0  0  0  0  0  0  0  0
   24.2645    0.6151  -11.3613 O   0  0  0  0  0  0  0  0  0  0  0  0
   24.8138    1.4700  -12.2917 C   0  0  0  0  0  0  0  0  0  0  0  0
   24.9177    2.8209  -12.0362 C   0  0  0  0  0  0  0  0  0  0  0  0
   25.4716    3.6978  -12.9648 C   0  0  0  0  0  0  0  0  0  0  0  0
   25.5639    5.0221  -12.6926 F   0  0  0  0  0  0  0  0  0  0  0  0
   25.9156    3.1655  -14.1566 C   0  0  0  0  0  0  0  0  0  0  0  0
   25.8212    1.7987  -14.4382 C   0  0  0  0  0  0  0  0  0  0  0  0
   25.2646    0.9677  -13.4860 C   0  0  0  0  0  0  0  0  0  0  0  0
   25.1771   -0.4194  -13.7312 N   0  0  0  0  0  0  0  0  0  0  0  0
   26.3087    0.6199  -10.2355 N   0  0  0  0  0  0  0  0  0  0  0  0
   27.1201    0.2157   -9.2650 C   0  0  0  0  0  0  0  0  0  0  0  0
  1  2  1  6
  2  3  2  0
  2  4  2  0
  2  5  1  6
  5  6  2  0
  6  7  1  0
  7  8  2  0
  8  9  1  0
  9 10  1  0
 10 11  2  0
 11 12  1  0
 12 13  1  0
 12 14  2  0
 14 15  1  0
 15 16  2  0
 16 17  1  0
  8 18  1  0
 18 19  2  0
 19  5  1  0
 16 10  1  0
M  END
$$$$
