_rank7
     RDKit          3D

 19 20  0  0  0  0  0  0  0  0999 V2000
   27.3250   -0.7554   -7.3194 C   0  0  0  0  0  0  0  0  0  0  0  0
   27.2494   -0.1336   -9.0003 S   0  0  1  0  0  6  0  0  0  0  0  0
   27.4459    1.3439   -9.0010 O   0  0  0  0  0  0  0  0  0  0  0  0
   28.3404   -0.8106   -9.7821 O   0  0  0  0  0  0  0  0  0  0  0  0
   25.6996   -0.5893   -9.6480 C   0  0  0  0  0  0  0  0  0  0  0  0
   25.6205   -1.4868  -10.6804 C   0  0  0  0  0  0  0  0  0  0  0  0
   24.3511   -1.8223  -11.1677 C   0  0  0  0  0  0  0  0  0  0  0  0
   23.2343   -1.2339  -10.5873 C   0  0  0  0  0  0  0  0  0  0  0  0
   21.9502   -1.5154  -11.0117 O   0  0  0  0  0  0  0  0  0  0  0  0
   20.8855   -0.8438  -10.4516 C   0  0  0  0  0  0  0  0  0  0  0  0
   20.7519    0.5203  -10.6018 C   0  0  0  0  0  0  0  0  0  0  0  0
   19.6814    1.2136  -10.0438 C   0  0  0  0  0  0  0  0  0  0  0  0
   19.5699    2.5546  -10.2040 F   0  0  0  0  0  0  0  0  0  0  0  0
   18.7532    0.4846   -9.3312 C   0  0  0  0  0  0  0  0  0  0  0  0
   18.8673   -0.8996   -9.1656 C   0  0  0  0  0  0  0  0  0  0  0  0
   19.9463   -1.5440   -9.7379 C   0  0  0  0  0  0  0  0  0  0  0  0
   20.0763   -2.9433   -9.6084 N   0  0  0  0  0  0  0  0  0  0  0  0
   23.3683   -0.3526   -9.5686 N   0  0  0  0  0  0  0  0  0  0  0  0
   24.5699   -0.0316   -9.1029 C   0  0  0  0  0  0  0  0  0  0  0  0
  1  2  1  6
  2  3  2  0
  2  4  2  0
  2  5  1  6
  5  6  2  0
  6  7  1  0
  7  8  2  0
  8  9  1  0
  9 10  1  0
 10 11  2  0
 11 12  1  0
 12 13  1  0
 12 14  2  0
 14 15  1  0
 15 16  2  0
 16 17  1  0
  8 18  1  0
 18 19  2  0
 19  5  1  0
 16 10  1  0
M  END
$$$$
