_rank8
     RDKit          3D

 19 20  0  0  0  0  0  0  0  0999 V2000
   28.2988   -1.4115   -9.3882 C   0  0  0  0  0  0  0  0  0  0  0  0
   27.3260   -0.2604   -8.4154 S   0  0  1  0  0  6  0  0  0  0  0  0
   27.1831   -0.7719   -7.0228 O   0  0  0  0  0  0  0  0  0  0  0  0
   28.0477    1.0584   -8.4209 O   0  0  0  0  0  0  0  0  0  0  0  0
   25.7880   -0.0863   -9.2111 C   0  0  0  0  0  0  0  0  0  0  0  0
   24.6456   -0.5498   -8.6128 C   0  0  0  0  0  0  0  0  0  0  0  0
   23.4318   -0.3868   -9.2922 C   0  0  0  0  0  0  0  0  0  0  0  0
   23.4386    0.2333  -10.5354 C   0  0  0  0  0  0  0  0  0  0  0  0
   22.2825    0.4316  -11.2651 O   0  0  0  0  0  0  0  0  0  0  0  0
   21.1286   -0.2298  -10.9053 C   0  0  0  0  0  0  0  0  0  0  0  0
   20.9749   -1.5754  -11.1639 C   0  0  0  0  0  0  0  0  0  0  0  0
   19.8162   -2.2588  -10.8053 C   0  0  0  0  0  0  0  0  0  0  0  0
   19.6865   -3.5816  -11.0692 F   0  0  0  0  0  0  0  0  0  0  0  0
   18.8211   -1.5391  -10.1787 C   0  0  0  0  0  0  0  0  0  0  0  0
   18.9543   -0.1738   -9.9056 C   0  0  0  0  0  0  0  0  0  0  0  0
   20.1222    0.4611  -10.2796 C   0  0  0  0  0  0  0  0  0  0  0  0
   20.2958    1.8329   -9.9965 N   0  0  0  0  0  0  0  0  0  0  0  0
   24.5963    0.6735  -11.0818 N   0  0  0  0  0  0  0  0  0  0  0  0
   25.7497    0.5214  -10.4413 C   0  0  0  0  0  0  0  0  0  0  0  0
  1  2  1  6
  2  3  2  0
  2  4  2  0
  2  5  1  6
  5  6  2  0
  6  7  1  0
  7  8  2  0
  8  9  1  0
  9 10  1  0
 10 11  2  0
 11 12  1  0
 12 13  1  0
 12 14  2  0
 14 15  1  0
 15 16  2  0
 16 17  1  0
  8 18  1  0
 18 19  2  0
 19  5  1  0
 16 10  1  0
M  END
$$$$
