_rank9
     RDKit          3D

 19 20  0  0  0  0  0  0  0  0999 V2000
   28.0048   -1.0915   -7.6561 C   0  0  0  0  0  0  0  0  0  0  0  0
   27.5157    0.1331   -8.8722 S   0  0  1  0  0  6  0  0  0  0  0  0
   27.6409    1.4997   -8.2906 O   0  0  0  0  0  0  0  0  0  0  0  0
   28.4258   -0.0200  -10.0589 O   0  0  0  0  0  0  0  0  0  0  0  0
   25.8801   -0.2327   -9.3412 C   0  0  0  0  0  0  0  0  0  0  0  0
   24.8377    0.5000   -8.8367 C   0  0  0  0  0  0  0  0  0  0  0  0
   23.5395    0.1679   -9.2437 C   0  0  0  0  0  0  0  0  0  0  0  0
   23.3658   -0.8835  -10.1351 C   0  0  0  0  0  0  0  0  0  0  0  0
   22.1175   -1.2691  -10.5838 O   0  0  0  0  0  0  0  0  0  0  0  0
   21.0540   -0.4010  -10.4670 C   0  0  0  0  0  0  0  0  0  0  0  0
   20.4434   -0.1908   -9.2487 C   0  0  0  0  0  0  0  0  0  0  0  0
   19.3690    0.6842   -9.1133 C   0  0  0  0  0  0  0  0  0  0  0  0
   18.7839    0.8757   -7.9062 F   0  0  0  0  0  0  0  0  0  0  0  0
   18.9337    1.3375  -10.2467 C   0  0  0  0  0  0  0  0  0  0  0  0
   19.5373    1.1408  -11.4930 C   0  0  0  0  0  0  0  0  0  0  0  0
   20.6003    0.2633  -11.5781 C   0  0  0  0  0  0  0  0  0  0  0  0
   21.2451    0.0616  -12.8172 N   0  0  0  0  0  0  0  0  0  0  0  0
   24.4309   -1.5753  -10.6038 N   0  0  0  0  0  0  0  0  0  0  0  0
   25.6638   -1.2640  -10.2210 C   0  0  0  0  0  0  0  0  0  0  0  0
  1  2  1  6
  2  3  2  0
  2  4  2  0
  2  5  1  6
  5  6  2  0
  6  7  1  0
  7  8  2  0
  8  9  1  0
  9 10  1  0
 10 11  2  0
 11 12  1  0
 12 13  1  0
 12 14  2  0
 14 15  1  0
 15 16  2  0
 16 17  1  0
  8 18  1  0
 18 19  2  0
 19  5  1  0
 16 10  1  0
M  END
$$$$
