_rank10
     RDKit          3D

 19 20  0  0  0  0  0  0  0  0999 V2000
   18.8135   -0.8597  -10.6799 C   0  0  0  0  0  0  0  0  0  0  0  0
   20.1228   -2.0694  -10.4794 S   0  0  1  0  0  6  0  0  0  0  0  0
   19.9996   -2.7304   -9.1492 O   0  0  0  0  0  0  0  0  0  0  0  0
   19.9790   -3.0783  -11.5846 O   0  0  0  0  0  0  0  0  0  0  0  0
   21.6344   -1.2249  -10.6545 C   0  0  0  0  0  0  0  0  0  0  0  0
   21.9922   -0.6952  -11.8667 C   0  0  0  0  0  0  0  0  0  0  0  0
   23.2182   -0.0245  -11.9580 C   0  0  0  0  0  0  0  0  0  0  0  0
   24.0137    0.0736  -10.8232 C   0  0  0  0  0  0  0  0  0  0  0  0
   25.2343    0.7206  -10.8340 O   0  0  0  0  0  0  0  0  0  0  0  0
   26.3214    0.1335  -10.2244 C   0  0  0  0  0  0  0  0  0  0  0  0
   26.4090    0.0634   -8.8501 C   0  0  0  0  0  0  0  0  0  0  0  0
   27.4997   -0.5279   -8.2186 C   0  0  0  0  0  0  0  0  0  0  0  0
   27.5651   -0.5858   -6.8663 F   0  0  0  0  0  0  0  0  0  0  0  0
   28.4958   -1.0445   -9.0197 C   0  0  0  0  0  0  0  0  0  0  0  0
   28.4289   -0.9855  -10.4156 C   0  0  0  0  0  0  0  0  0  0  0  0
   27.3271   -0.3896  -10.9969 C   0  0  0  0  0  0  0  0  0  0  0  0
   27.2196   -0.3358  -12.4031 N   0  0  0  0  0  0  0  0  0  0  0  0
   23.6126   -0.4678   -9.6491 N   0  0  0  0  0  0  0  0  0  0  0  0
   22.4508   -1.1045   -9.5575 C   0  0  0  0  0  0  0  0  0  0  0  0
  1  2  1  6
  2  3  2  0
  2  4  2  0
  2  5  1  1
  5  6  2  0
  6  7  1  0
  7  8  2  0
  8  9  1  0
  9 10  1  0
 10 11  2  0
 11 12  1  0
 12 13  1  0
 12 14  2  0
 14 15  1  0
 15 16  2  0
 16 17  1  0
  8 18  1  0
 18 19  2  0
 19  5  1  0
 16 10  1  0
M  END
$$$$
