_rank2
     RDKit          3D

 19 20  0  0  0  0  0  0  0  0999 V2000
   27.3115    1.0884   -7.4957 C   0  0  0  0  0  0  0  0  0  0  0  0
   27.4624   -0.2588   -8.6704 S   0  0  1  0  0  6  0  0  0  0  0  0
   28.6816   -0.0656   -9.5058 O   0  0  0  0  0  0  0  0  0  0  0  0
   27.5598   -1.5359   -7.8834 O   0  0  0  0  0  0  0  0  0  0  0  0
   26.0081   -0.2729   -9.6263 C   0  0  0  0  0  0  0  0  0  0  0  0
   26.0780   -0.4270  -10.9862 C   0  0  0  0  0  0  0  0  0  0  0  0
   24.8806   -0.4319  -11.7125 C   0  0  0  0  0  0  0  0  0  0  0  0
   23.6815   -0.2807  -11.0272 C   0  0  0  0  0  0  0  0  0  0  0  0
   22.4604   -0.2769  -11.6732 O   0  0  0  0  0  0  0  0  0  0  0  0
   21.2987   -0.2493  -10.9329 C   0  0  0  0  0  0  0  0  0  0  0  0
   20.7170    0.9483  -10.5744 C   0  0  0  0  0  0  0  0  0  0  0  0
   19.5426    0.9936   -9.8282 C   0  0  0  0  0  0  0  0  0  0  0  0
   18.9881    2.1821   -9.4870 F   0  0  0  0  0  0  0  0  0  0  0  0
   18.9774   -0.2081   -9.4576 C   0  0  0  0  0  0  0  0  0  0  0  0
   19.5488   -1.4352   -9.8097 C   0  0  0  0  0  0  0  0  0  0  0  0
   20.7139   -1.4299  -10.5510 C   0  0  0  0  0  0  0  0  0  0  0  0
   21.3016   -2.6522  -10.9417 N   0  0  0  0  0  0  0  0  0  0  0  0
   23.6684   -0.1320   -9.6818 N   0  0  0  0  0  0  0  0  0  0  0  0
   24.8012   -0.1270   -8.9887 C   0  0  0  0  0  0  0  0  0  0  0  0
  1  2  1  6
  2  3  2  0
  2  4  2  0
  2  5  1  6
  5  6  2  0
  6  7  1  0
  7  8  2  0
  8  9  1  0
  9 10  1  0
 10 11  2  0
 11 12  1  0
 12 13  1  0
 12 14  2  0
 14 15  1  0
 15 16  2  0
 16 17  1  0
  8 18  1  0
 18 19  2  0
 19  5  1  0
 16 10  1  0
M  END
$$$$
