_rank1
     RDKit          3D

 19 20  0  0  0  0  0  0  0  0999 V2000
   28.1220    1.3189   -8.5806 C   0  0  0  0  0  0  0  0  0  0  0  0
   27.3914   -0.3193   -8.5713 S   0  0  1  0  0  6  0  0  0  0  0  0
   28.3761   -1.3139   -9.0840 O   0  0  0  0  0  0  0  0  0  0  0  0
   27.0121   -0.6370   -7.1518 O   0  0  0  0  0  0  0  0  0  0  0  0
   25.9579   -0.2487   -9.5556 C   0  0  0  0  0  0  0  0  0  0  0  0
   26.0610   -0.1816  -10.9205 C   0  0  0  0  0  0  0  0  0  0  0  0
   24.8791   -0.1264  -11.6699 C   0  0  0  0  0  0  0  0  0  0  0  0
   23.6613   -0.1415  -11.0014 C   0  0  0  0  0  0  0  0  0  0  0  0
   22.4539   -0.0916  -11.6707 O   0  0  0  0  0  0  0  0  0  0  0  0
   21.2777   -0.2079  -10.9627 C   0  0  0  0  0  0  0  0  0  0  0  0
   20.6298    0.9091  -10.4795 C   0  0  0  0  0  0  0  0  0  0  0  0
   19.4399    0.8090   -9.7638 C   0  0  0  0  0  0  0  0  0  0  0  0
   18.8200    1.9203   -9.2981 F   0  0  0  0  0  0  0  0  0  0  0  0
   18.9281   -0.4539   -9.5536 C   0  0  0  0  0  0  0  0  0  0  0  0
   19.5671   -1.6015  -10.0343 C   0  0  0  0  0  0  0  0  0  0  0  0
   20.7451   -1.4522  -10.7392 C   0  0  0  0  0  0  0  0  0  0  0  0
   21.4008   -2.5896  -11.2572 N   0  0  0  0  0  0  0  0  0  0  0  0
   23.6155   -0.2090   -9.6501 N   0  0  0  0  0  0  0  0  0  0  0  0
   24.7334   -0.2618   -8.9352 C   0  0  0  0  0  0  0  0  0  0  0  0
  1  2  1  6
  2  3  2  0
  2  4  2  0
  2  5  1  6
  5  6  2  0
  6  7  1  0
  7  8  2  0
  8  9  1  0
  9 10  1  0
 10 11  2  0
 11 12  1  0
 12 13  1  0
 12 14  2  0
 14 15  1  0
 15 16  2  0
 16 17  1  0
  8 18  1  0
 18 19  2  0
 19  5  1  0
 16 10  1  0
M  END
$$$$
