_rank15
     RDKit          3D

 19 20  0  0  0  0  0  0  0  0999 V2000
   27.9685   -1.9432   -8.6787 C   0  0  0  0  0  0  0  0  0  0  0  0
   27.5999   -0.3713   -9.4604 S   0  0  1  0  0  6  0  0  0  0  0  0
   28.2687    0.7323   -8.7145 O   0  0  0  0  0  0  0  0  0  0  0  0
   28.1109   -0.4380  -10.8727 O   0  0  0  0  0  0  0  0  0  0  0  0
   25.8683   -0.1977   -9.4750 C   0  0  0  0  0  0  0  0  0  0  0  0
   25.1957   -0.0925  -10.6643 C   0  0  0  0  0  0  0  0  0  0  0  0
   23.8025    0.0454  -10.6248 C   0  0  0  0  0  0  0  0  0  0  0  0
   23.1671    0.0701   -9.3896 C   0  0  0  0  0  0  0  0  0  0  0  0
   21.7972    0.2016   -9.2694 O   0  0  0  0  0  0  0  0  0  0  0  0
   20.9731   -0.3679  -10.2153 C   0  0  0  0  0  0  0  0  0  0  0  0
   21.0689   -1.7090  -10.5214 C   0  0  0  0  0  0  0  0  0  0  0  0
   20.2427   -2.3001  -11.4733 C   0  0  0  0  0  0  0  0  0  0  0  0
   20.3543   -3.6202  -11.7585 F   0  0  0  0  0  0  0  0  0  0  0  0
   19.3192   -1.4933  -12.1035 C   0  0  0  0  0  0  0  0  0  0  0  0
   19.2032   -0.1308  -11.8095 C   0  0  0  0  0  0  0  0  0  0  0  0
   20.0443    0.4109  -10.8577 C   0  0  0  0  0  0  0  0  0  0  0  0
   19.9354    1.7775  -10.5223 N   0  0  0  0  0  0  0  0  0  0  0  0
   23.8795   -0.0380   -8.2436 N   0  0  0  0  0  0  0  0  0  0  0  0
   25.2007   -0.1693   -8.2759 C   0  0  0  0  0  0  0  0  0  0  0  0
  1  2  1  6
  2  3  2  0
  2  4  2  0
  2  5  1  6
  5  6  2  0
  6  7  1  0
  7  8  2  0
  8  9  1  0
  9 10  1  0
 10 11  2  0
 11 12  1  0
 12 13  1  0
 12 14  2  0
 14 15  1  0
 15 16  2  0
 16 17  1  0
  8 18  1  0
 18 19  2  0
 19  5  1  0
 16 10  1  0
M  END
$$$$
