_rank13
     RDKit          3D

 19 20  0  0  0  0  0  0  0  0999 V2000
   28.2024   -0.3699   -9.9957 C   0  0  0  0  0  0  0  0  0  0  0  0
   27.0269    0.1293   -8.7360 S   0  0  1  0  0  6  0  0  0  0  0  0
   27.4716   -0.3711   -7.4043 O   0  0  0  0  0  0  0  0  0  0  0  0
   26.9688    1.6314   -8.7419 O   0  0  0  0  0  0  0  0  0  0  0  0
   25.4769   -0.5156   -9.1947 C   0  0  0  0  0  0  0  0  0  0  0  0
   25.0686   -1.7341   -8.7187 C   0  0  0  0  0  0  0  0  0  0  0  0
   23.8132   -2.2110   -9.1160 C   0  0  0  0  0  0  0  0  0  0  0  0
   23.0414   -1.4335   -9.9703 C   0  0  0  0  0  0  0  0  0  0  0  0
   21.7931   -1.8351  -10.4046 O   0  0  0  0  0  0  0  0  0  0  0  0
   20.7813   -0.9071  -10.5203 C   0  0  0  0  0  0  0  0  0  0  0  0
   20.5803    0.0453   -9.5437 C   0  0  0  0  0  0  0  0  0  0  0  0
   19.5639    0.9911   -9.6463 C   0  0  0  0  0  0  0  0  0  0  0  0
   19.3844    1.9182   -8.6744 F   0  0  0  0  0  0  0  0  0  0  0  0
   18.7598    0.9424  -10.7652 C   0  0  0  0  0  0  0  0  0  0  0  0
   18.9447   -0.0140  -11.7690 C   0  0  0  0  0  0  0  0  0  0  0  0
   19.9665   -0.9315  -11.6236 C   0  0  0  0  0  0  0  0  0  0  0  0
   20.1929   -1.8939  -12.6308 N   0  0  0  0  0  0  0  0  0  0  0  0
   23.4924   -0.2357  -10.4114 N   0  0  0  0  0  0  0  0  0  0  0  0
   24.6820    0.2210  -10.0373 C   0  0  0  0  0  0  0  0  0  0  0  0
  1  2  1  6
  2  3  2  0
  2  4  2  0
  2  5  1  6
  5  6  2  0
  6  7  1  0
  7  8  2  0
  8  9  1  0
  9 10  1  0
 10 11  2  0
 11 12  1  0
 12 13  1  0
 12 14  2  0
 14 15  1  0
 15 16  2  0
 16 17  1  0
  8 18  1  0
 18 19  2  0
 19  5  1  0
 16 10  1  0
M  END
$$$$
