_rank8
     RDKit          3D

 19 20  0  0  0  0  0  0  0  0999 V2000
   25.6883    1.0673  -13.5859 C   0  0  0  0  0  0  0  0  0  0  0  0
   26.3163    0.7197  -12.2850 C   0  0  2  0  0  0  0  0  0  0  0  0
   26.8294   -0.6368  -12.3735 N   0  0  0  0  0  0  0  0  0  0  0  0
   25.4293    0.7910  -11.0944 C   0  0  1  0  0  0  0  0  0  0  0  0
   24.3093    0.0025  -11.3496 O   0  0  0  0  0  0  0  0  0  0  0  0
   23.0871    0.0031  -10.7316 C   0  0  0  0  0  0  0  0  0  0  0  0
   22.4748    1.1513  -10.3059 C   0  0  0  0  0  0  0  0  0  0  0  0
   21.2280    1.0649   -9.6843 C   0  0  0  0  0  0  0  0  0  0  0  0
   20.6313    2.2238   -9.2655 F   0  0  0  0  0  0  0  0  0  0  0  0
   20.5836   -0.1336   -9.4798 C   0  0  0  0  0  0  0  0  0  0  0  0
   21.2337   -1.2713   -9.9237 C   0  0  0  0  0  0  0  0  0  0  0  0
   20.6198   -2.5786   -9.7455 C   0  0  0  0  0  0  0  0  0  0  0  0
   20.1245   -3.6226   -9.5829 N   0  0  0  0  0  0  0  0  0  0  0  0
   22.4533   -1.2291  -10.5360 C   0  0  0  0  0  0  0  0  0  0  0  0
   26.0928    0.3105   -9.8374 C   0  0  0  0  0  0  0  0  0  0  0  0
   26.7840    1.0678   -8.9956 C   0  0  0  0  0  0  0  0  0  0  0  0
   27.3496    0.4747   -7.8600 C   0  0  0  0  0  0  0  0  0  0  0  0
   26.8510   -1.2453   -8.0349 S   0  0  0  0  0  0  0  0  0  0  0  0
   25.9529   -1.0650   -9.5576 C   0  0  0  0  0  0  0  0  0  0  0  0
  1  2  1  6
  2  3  1  6
  2  4  1  0
  4  5  1  6
  5  6  1  0
  6  7  2  0
  7  8  1  0
  8  9  1  0
  8 10  2  0
 10 11  1  0
 11 12  1  0
 12 13  3  0
 11 14  2  0
  4 15  1  0
 15 16  1  0
 16 17  2  0
 17 18  1  0
 18 19  1  0
 14  6  1  0
 19 15  2  0
M  END
$$$$
