_rank12
     RDKit          3D

 19 20  0  0  0  0  0  0  0  0999 V2000
   25.2564    0.4379  -13.8982 C   0  0  0  0  0  0  0  0  0  0  0  0
   23.9888    0.3396  -13.1294 C   0  0  2  0  0  0  0  0  0  0  0  0
   23.5942    1.6785  -12.7261 N   0  0  0  0  0  0  0  0  0  0  0  0
   24.0323   -0.5063  -11.9078 C   0  0  1  0  0  0  0  0  0  0  0  0
   24.8417    0.1362  -10.9733 O   0  0  0  0  0  0  0  0  0  0  0  0
   25.6532   -0.4023  -10.0104 C   0  0  0  0  0  0  0  0  0  0  0  0
   25.6936   -1.7446   -9.7441 C   0  0  0  0  0  0  0  0  0  0  0  0
   26.5492   -2.2126   -8.7453 C   0  0  0  0  0  0  0  0  0  0  0  0
   26.5758   -3.5581   -8.4934 F   0  0  0  0  0  0  0  0  0  0  0  0
   27.3594   -1.3764   -8.0121 C   0  0  0  0  0  0  0  0  0  0  0  0
   27.2905   -0.0272   -8.3103 C   0  0  0  0  0  0  0  0  0  0  0  0
   28.1152    0.9242   -7.5804 C   0  0  0  0  0  0  0  0  0  0  0  0
   28.7608    1.7000   -6.9949 N   0  0  0  0  0  0  0  0  0  0  0  0
   26.4671    0.4702   -9.2792 C   0  0  0  0  0  0  0  0  0  0  0  0
   22.6778   -0.7407  -11.3066 C   0  0  0  0  0  0  0  0  0  0  0  0
   22.0954   -1.9239  -11.1624 C   0  0  0  0  0  0  0  0  0  0  0  0
   20.8222   -1.9852  -10.5826 C   0  0  0  0  0  0  0  0  0  0  0  0
   20.4712   -0.2541  -10.2397 S   0  0  0  0  0  0  0  0  0  0  0  0
   21.9927    0.4126  -10.8704 C   0  0  0  0  0  0  0  0  0  0  0  0
  1  2  1  6
  2  3  1  1
  2  4  1  0
  4  5  1  1
  5  6  1  0
  6  7  2  0
  7  8  1  0
  8  9  1  0
  8 10  2  0
 10 11  1  0
 11 12  1  0
 12 13  3  0
 11 14  2  0
  4 15  1  0
 15 16  1  0
 16 17  2  0
 17 18  1  0
 18 19  1  0
 14  6  1  0
 19 15  2  0
M  END
$$$$
