_rank7
     RDKit          3D

 19 20  0  0  0  0  0  0  0  0999 V2000
   27.9826    0.2991  -12.0791 C   0  0  0  0  0  0  0  0  0  0  0  0
   26.5230    0.1644  -12.3219 C   0  0  2  0  0  0  0  0  0  0  0  0
   26.1136    1.2149  -13.2383 N   0  0  0  0  0  0  0  0  0  0  0  0
   25.6526    0.2481  -11.1198 C   0  0  1  0  0  0  0  0  0  0  0  0
   24.5632   -0.5963  -11.3230 O   0  0  0  0  0  0  0  0  0  0  0  0
   23.2907   -0.5084  -10.8241 C   0  0  0  0  0  0  0  0  0  0  0  0
   22.7669    0.6590  -10.3373 C   0  0  0  0  0  0  0  0  0  0  0  0
   21.4602    0.6635   -9.8463 C   0  0  0  0  0  0  0  0  0  0  0  0
   20.9536    1.8403   -9.3637 F   0  0  0  0  0  0  0  0  0  0  0  0
   20.6707   -0.4634   -9.8308 C   0  0  0  0  0  0  0  0  0  0  0  0
   21.2351   -1.6233  -10.3310 C   0  0  0  0  0  0  0  0  0  0  0  0
   20.4666   -2.8589  -10.3502 C   0  0  0  0  0  0  0  0  0  0  0  0
   19.8558   -3.8526  -10.3850 N   0  0  0  0  0  0  0  0  0  0  0  0
   22.5090   -1.6691  -10.8199 C   0  0  0  0  0  0  0  0  0  0  0  0
   26.3556   -0.1517   -9.8560 C   0  0  0  0  0  0  0  0  0  0  0  0
   26.8444    0.6858   -8.9508 C   0  0  0  0  0  0  0  0  0  0  0  0
   27.4792    0.1623   -7.8176 C   0  0  0  0  0  0  0  0  0  0  0  0
   27.3538   -1.6117   -8.0908 S   0  0  0  0  0  0  0  0  0  0  0  0
   26.4933   -1.5394   -9.6437 C   0  0  0  0  0  0  0  0  0  0  0  0
  1  2  1  6
  2  3  1  6
  2  4  1  0
  4  5  1  6
  5  6  1  0
  6  7  2  0
  7  8  1  0
  8  9  1  0
  8 10  2  0
 10 11  1  0
 11 12  1  0
 12 13  3  0
 11 14  2  0
  4 15  1  0
 15 16  1  0
 16 17  2  0
 17 18  1  0
 18 19  1  0
 14  6  1  0
 19 15  2  0
M  END
$$$$
