_rank6
     RDKit          3D

 19 20  0  0  0  0  0  0  0  0999 V2000
   27.9733    1.0334  -12.5263 C   0  0  0  0  0  0  0  0  0  0  0  0
   26.6725    0.3347  -12.6913 C   0  0  2  0  0  0  0  0  0  0  0  0
   26.0062    0.8803  -13.8616 N   0  0  0  0  0  0  0  0  0  0  0  0
   25.7299    0.4348  -11.5463 C   0  0  1  0  0  0  0  0  0  0  0  0
   24.6153   -0.3472  -11.8424 O   0  0  0  0  0  0  0  0  0  0  0  0
   23.3995   -0.4004  -11.2143 C   0  0  0  0  0  0  0  0  0  0  0  0
   22.9023    0.6408  -10.4774 C   0  0  0  0  0  0  0  0  0  0  0  0
   21.6535    0.5056   -9.8685 C   0  0  0  0  0  0  0  0  0  0  0  0
   21.1728    1.5574   -9.1358 F   0  0  0  0  0  0  0  0  0  0  0  0
   20.8957   -0.6377   -9.9783 C   0  0  0  0  0  0  0  0  0  0  0  0
   21.4317   -1.6675  -10.7308 C   0  0  0  0  0  0  0  0  0  0  0  0
   20.6936   -2.9108  -10.8961 C   0  0  0  0  0  0  0  0  0  0  0  0
   20.1194   -3.9176  -11.0315 N   0  0  0  0  0  0  0  0  0  0  0  0
   22.6490   -1.5746  -11.3419 C   0  0  0  0  0  0  0  0  0  0  0  0
   26.3269   -0.0308  -10.2510 C   0  0  0  0  0  0  0  0  0  0  0  0
   26.5484    0.7326   -9.1888 C   0  0  0  0  0  0  0  0  0  0  0  0
   27.1163    0.1545   -8.0466 C   0  0  0  0  0  0  0  0  0  0  0  0
   27.3308   -1.5600   -8.5487 S   0  0  0  0  0  0  0  0  0  0  0  0
   26.6718   -1.3972  -10.1908 C   0  0  0  0  0  0  0  0  0  0  0  0
  1  2  1  6
  2  3  1  6
  2  4  1  0
  4  5  1  6
  5  6  1  0
  6  7  2  0
  7  8  1  0
  8  9  1  0
  8 10  2  0
 10 11  1  0
 11 12  1  0
 12 13  3  0
 11 14  2  0
  4 15  1  0
 15 16  1  0
 16 17  2  0
 17 18  1  0
 18 19  1  0
 14  6  1  0
 19 15  2  0
M  END
$$$$
