_rank1
     RDKit          3D

 19 20  0  0  0  0  0  0  0  0999 V2000
   27.6557   -0.5927   -9.1726 C   0  0  0  0  0  0  0  0  0  0  0  0
   26.2457   -0.2631   -8.8401 C   0  0  2  0  0  0  0  0  0  0  0  0
   25.8712   -1.0075   -7.6497 N   0  0  0  0  0  0  0  0  0  0  0  0
   25.2413   -0.5612   -9.8945 C   0  0  1  0  0  0  0  0  0  0  0  0
   24.0049   -0.0994   -9.4480 O   0  0  0  0  0  0  0  0  0  0  0  0
   22.7507   -0.3764   -9.9231 C   0  0  0  0  0  0  0  0  0  0  0  0
   22.4849   -1.4556  -10.7224 C   0  0  0  0  0  0  0  0  0  0  0  0
   21.1778   -1.6669  -11.1646 C   0  0  0  0  0  0  0  0  0  0  0  0
   20.9315   -2.7514  -11.9630 F   0  0  0  0  0  0  0  0  0  0  0  0
   20.1379   -0.8307  -10.8289 C   0  0  0  0  0  0  0  0  0  0  0  0
   20.4459    0.2486  -10.0200 C   0  0  0  0  0  0  0  0  0  0  0  0
   19.4029    1.1810   -9.6194 C   0  0  0  0  0  0  0  0  0  0  0  0
   18.5655    1.9355   -9.3173 N   0  0  0  0  0  0  0  0  0  0  0  0
   21.7110    0.4900   -9.5668 C   0  0  0  0  0  0  0  0  0  0  0  0
   25.5613    0.0847  -11.2105 C   0  0  0  0  0  0  0  0  0  0  0  0
   26.3293   -0.4392  -12.1569 C   0  0  0  0  0  0  0  0  0  0  0  0
   26.5391    0.2859  -13.3365 C   0  0  0  0  0  0  0  0  0  0  0  0
   25.5799    1.7803  -13.0459 S   0  0  0  0  0  0  0  0  0  0  0  0
   24.9840    1.3533  -11.4273 C   0  0  0  0  0  0  0  0  0  0  0  0
  1  2  1  6
  2  3  1  1
  2  4  1  0
  4  5  1  1
  5  6  1  0
  6  7  2  0
  7  8  1  0
  8  9  1  0
  8 10  2  0
 10 11  1  0
 11 12  1  0
 12 13  3  0
 11 14  2  0
  4 15  1  0
 15 16  1  0
 16 17  2  0
 17 18  1  0
 18 19  1  0
 14  6  1  0
 19 15  2  0
M  END
$$$$
