_rank11
     RDKit          3D

 19 20  0  0  0  0  0  0  0  0999 V2000
   26.5095   -0.8512  -13.2257 C   0  0  0  0  0  0  0  0  0  0  0  0
   26.3729    0.5064  -12.6377 C   0  0  2  0  0  0  0  0  0  0  0  0
   27.6945    1.1050  -12.5588 N   0  0  0  0  0  0  0  0  0  0  0  0
   25.7655    0.5710  -11.2826 C   0  0  1  0  0  0  0  0  0  0  0  0
   24.4474    0.1312  -11.3852 O   0  0  0  0  0  0  0  0  0  0  0  0
   23.4996   -0.0093  -10.4066 C   0  0  0  0  0  0  0  0  0  0  0  0
   23.8166   -0.3024   -9.1074 C   0  0  0  0  0  0  0  0  0  0  0  0
   22.7896   -0.4289   -8.1705 C   0  0  0  0  0  0  0  0  0  0  0  0
   23.1262   -0.7223   -6.8762 F   0  0  0  0  0  0  0  0  0  0  0  0
   21.4630   -0.2704   -8.4995 C   0  0  0  0  0  0  0  0  0  0  0  0
   21.1826    0.0251   -9.8216 C   0  0  0  0  0  0  0  0  0  0  0  0
   19.8044    0.2081  -10.2517 C   0  0  0  0  0  0  0  0  0  0  0  0
   18.7032    0.3746  -10.5998 N   0  0  0  0  0  0  0  0  0  0  0  0
   22.1579    0.1570  -10.7680 C   0  0  0  0  0  0  0  0  0  0  0  0
   26.4881   -0.2724  -10.2737 C   0  0  0  0  0  0  0  0  0  0  0  0
   26.4452   -1.5967  -10.2074 C   0  0  0  0  0  0  0  0  0  0  0  0
   27.1741   -2.2479   -9.2046 C   0  0  0  0  0  0  0  0  0  0  0  0
   27.9445   -0.8742   -8.3345 S   0  0  0  0  0  0  0  0  0  0  0  0
   27.2667    0.4313   -9.3313 C   0  0  0  0  0  0  0  0  0  0  0  0
  1  2  1  6
  2  3  1  1
  2  4  1  0
  4  5  1  6
  5  6  1  0
  6  7  2  0
  7  8  1  0
  8  9  1  0
  8 10  2  0
 10 11  1  0
 11 12  1  0
 12 13  3  0
 11 14  2  0
  4 15  1  0
 15 16  1  0
 16 17  2  0
 17 18  1  0
 18 19  1  0
 14  6  1  0
 19 15  2  0
M  END
$$$$
