_rank13
     RDKit          3D

 19 20  0  0  0  0  0  0  0  0999 V2000
   21.6186    1.0504  -11.9853 C   0  0  0  0  0  0  0  0  0  0  0  0
   22.9075    0.3849  -12.3065 C   0  0  2  0  0  0  0  0  0  0  0  0
   22.8063   -0.1880  -13.6380 N   0  0  0  0  0  0  0  0  0  0  0  0
   23.3301   -0.6974  -11.3794 C   0  0  1  0  0  0  0  0  0  0  0  0
   24.0714   -0.1145  -10.3538 O   0  0  0  0  0  0  0  0  0  0  0  0
   25.2246   -0.5518   -9.7583 C   0  0  0  0  0  0  0  0  0  0  0  0
   25.7436   -1.7991   -9.9799 C   0  0  0  0  0  0  0  0  0  0  0  0
   26.9245   -2.1673   -9.3330 C   0  0  0  0  0  0  0  0  0  0  0  0
   27.4283   -3.4186   -9.5671 F   0  0  0  0  0  0  0  0  0  0  0  0
   27.5937   -1.3240   -8.4761 C   0  0  0  0  0  0  0  0  0  0  0  0
   27.0384   -0.0724   -8.2777 C   0  0  0  0  0  0  0  0  0  0  0  0
   27.6844    0.8793   -7.3862 C   0  0  0  0  0  0  0  0  0  0  0  0
   28.1860    1.6419   -6.6593 N   0  0  0  0  0  0  0  0  0  0  0  0
   25.8855    0.3256   -8.8913 C   0  0  0  0  0  0  0  0  0  0  0  0
   22.1742   -1.4474  -10.7855 C   0  0  0  0  0  0  0  0  0  0  0  0
   21.7610   -2.6491  -11.1663 C   0  0  0  0  0  0  0  0  0  0  0  0
   20.6616   -3.2239  -10.5165 C   0  0  0  0  0  0  0  0  0  0  0  0
   20.2231   -1.9617   -9.3115 S   0  0  0  0  0  0  0  0  0  0  0  0
   21.4908   -0.7925   -9.7397 C   0  0  0  0  0  0  0  0  0  0  0  0
  1  2  1  6
  2  3  1  6
  2  4  1  0
  4  5  1  1
  5  6  1  0
  6  7  2  0
  7  8  1  0
  8  9  1  0
  8 10  2  0
 10 11  1  0
 11 12  1  0
 12 13  3  0
 11 14  2  0
  4 15  1  0
 15 16  1  0
 16 17  2  0
 17 18  1  0
 18 19  1  0
 14  6  1  0
 19 15  2  0
M  END
$$$$
