_rank10
     RDKit          3D

 19 20  0  0  0  0  0  0  0  0999 V2000
   25.0183    1.7786  -13.0877 C   0  0  0  0  0  0  0  0  0  0  0  0
   23.8532    0.9669  -12.6504 C   0  0  2  0  0  0  0  0  0  0  0  0
   22.8593    1.8628  -12.0841 N   0  0  0  0  0  0  0  0  0  0  0  0
   24.1366   -0.0889  -11.6432 C   0  0  1  0  0  0  0  0  0  0  0  0
   24.6012    0.5374  -10.4886 O   0  0  0  0  0  0  0  0  0  0  0  0
   25.6895    0.2352   -9.7140 C   0  0  0  0  0  0  0  0  0  0  0  0
   25.9065    0.8073   -8.4893 C   0  0  0  0  0  0  0  0  0  0  0  0
   27.0417    0.4442   -7.7625 C   0  0  0  0  0  0  0  0  0  0  0  0
   27.2417    1.0268   -6.5399 F   0  0  0  0  0  0  0  0  0  0  0  0
   27.9581   -0.4706   -8.2280 C   0  0  0  0  0  0  0  0  0  0  0  0
   27.7043   -1.0267   -9.4691 C   0  0  0  0  0  0  0  0  0  0  0  0
   28.6248   -2.0025  -10.0333 C   0  0  0  0  0  0  0  0  0  0  0  0
   29.3769   -2.7794  -10.4718 N   0  0  0  0  0  0  0  0  0  0  0  0
   26.6061   -0.6982  -10.2109 C   0  0  0  0  0  0  0  0  0  0  0  0
   22.9316   -0.9156  -11.3032 C   0  0  0  0  0  0  0  0  0  0  0  0
   22.2777   -1.7039  -12.1465 C   0  0  0  0  0  0  0  0  0  0  0  0
   21.1644   -2.4155  -11.6826 C   0  0  0  0  0  0  0  0  0  0  0  0
   21.0764   -1.9114   -9.9576 S   0  0  0  0  0  0  0  0  0  0  0  0
   22.4811   -0.8232   -9.9697 C   0  0  0  0  0  0  0  0  0  0  0  0
  1  2  1  6
  2  3  1  1
  2  4  1  0
  4  5  1  1
  5  6  1  0
  6  7  2  0
  7  8  1  0
  8  9  1  0
  8 10  2  0
 10 11  1  0
 11 12  1  0
 12 13  3  0
 11 14  2  0
  4 15  1  0
 15 16  1  0
 16 17  2  0
 17 18  1  0
 18 19  1  0
 14  6  1  0
 19 15  2  0
M  END
$$$$
