_rank2
     RDKit          3D

 19 20  0  0  0  0  0  0  0  0999 V2000
   26.2516   -0.4715  -13.0837 C   0  0  0  0  0  0  0  0  0  0  0  0
   25.6453    0.7204  -12.4361 C   0  0  2  0  0  0  0  0  0  0  0  0
   26.7040    1.6745  -12.1531 N   0  0  0  0  0  0  0  0  0  0  0  0
   24.9114    0.4697  -11.1681 C   0  0  1  0  0  0  0  0  0  0  0  0
   23.9941   -0.5527  -11.4017 O   0  0  0  0  0  0  0  0  0  0  0  0
   22.7469   -0.7399  -10.8677 C   0  0  0  0  0  0  0  0  0  0  0  0
   22.2088   -1.9823  -10.6649 C   0  0  0  0  0  0  0  0  0  0  0  0
   20.9299   -2.0862  -10.1153 C   0  0  0  0  0  0  0  0  0  0  0  0
   20.4086   -3.3370   -9.9197 F   0  0  0  0  0  0  0  0  0  0  0  0
   20.1818   -0.9854   -9.7663 C   0  0  0  0  0  0  0  0  0  0  0  0
   20.7594    0.2524   -9.9864 C   0  0  0  0  0  0  0  0  0  0  0  0
   20.0340    1.4669   -9.6447 C   0  0  0  0  0  0  0  0  0  0  0  0
   19.4700    2.4494   -9.3652 N   0  0  0  0  0  0  0  0  0  0  0  0
   22.0071    0.3964  -10.5216 C   0  0  0  0  0  0  0  0  0  0  0  0
   25.8125    0.0725  -10.0360 C   0  0  0  0  0  0  0  0  0  0  0  0
   26.4603    0.9120   -9.2388 C   0  0  0  0  0  0  0  0  0  0  0  0
   27.2702    0.3909   -8.2221 C   0  0  0  0  0  0  0  0  0  0  0  0
   27.0737   -1.3838   -8.4446 S   0  0  0  0  0  0  0  0  0  0  0  0
   25.9633   -1.3148   -9.8302 C   0  0  0  0  0  0  0  0  0  0  0  0
  1  2  1  6
  2  3  1  1
  2  4  1  0
  4  5  1  6
  5  6  1  0
  6  7  2  0
  7  8  1  0
  8  9  1  0
  8 10  2  0
 10 11  1  0
 11 12  1  0
 12 13  3  0
 11 14  2  0
  4 15  1  0
 15 16  1  0
 16 17  2  0
 17 18  1  0
 18 19  1  0
 14  6  1  0
 19 15  2  0
M  END
$$$$
