_rank5
     RDKit          3D

 19 20  0  0  0  0  0  0  0  0999 V2000
   28.0558    0.9211  -12.3761 C   0  0  0  0  0  0  0  0  0  0  0  0
   26.7095    0.3268  -12.5802 C   0  0  2  0  0  0  0  0  0  0  0  0
   26.0747    1.0066  -13.6965 N   0  0  0  0  0  0  0  0  0  0  0  0
   25.7830    0.3997  -11.4202 C   0  0  1  0  0  0  0  0  0  0  0  0
   24.7148   -0.4583  -11.6735 O   0  0  0  0  0  0  0  0  0  0  0  0
   23.4956   -0.5342  -11.0544 C   0  0  0  0  0  0  0  0  0  0  0  0
   23.0395    0.4328  -10.1993 C   0  0  0  0  0  0  0  0  0  0  0  0
   21.7839    0.2791   -9.6091 C   0  0  0  0  0  0  0  0  0  0  0  0
   21.3448    1.2565   -8.7569 F   0  0  0  0  0  0  0  0  0  0  0  0
   20.9796   -0.8106   -9.8517 C   0  0  0  0  0  0  0  0  0  0  0  0
   21.4749   -1.7662  -10.7210 C   0  0  0  0  0  0  0  0  0  0  0  0
   20.6863   -2.9494  -11.0307 C   0  0  0  0  0  0  0  0  0  0  0  0
   20.0704   -3.9097  -11.2756 N   0  0  0  0  0  0  0  0  0  0  0  0
   22.6973   -1.6529  -11.3185 C   0  0  0  0  0  0  0  0  0  0  0  0
   26.4311    0.0086  -10.1247 C   0  0  0  0  0  0  0  0  0  0  0  0
   26.7578   -1.2277   -9.7715 C   0  0  0  0  0  0  0  0  0  0  0  0
   27.3578   -1.4387   -8.5238 C   0  0  0  0  0  0  0  0  0  0  0  0
   27.4440    0.2278   -7.8510 S   0  0  0  0  0  0  0  0  0  0  0  0
   26.7002    1.0656   -9.2302 C   0  0  0  0  0  0  0  0  0  0  0  0
  1  2  1  6
  2  3  1  6
  2  4  1  0
  4  5  1  6
  5  6  1  0
  6  7  2  0
  7  8  1  0
  8  9  1  0
  8 10  2  0
 10 11  1  0
 11 12  1  0
 12 13  3  0
 11 14  2  0
  4 15  1  0
 15 16  1  0
 16 17  2  0
 17 18  1  0
 18 19  1  0
 14  6  1  0
 19 15  2  0
M  END
$$$$
