_rank20
     RDKit          3D

 19 20  0  0  0  0  0  0  0  0999 V2000
   22.8608    0.0984  -14.0286 C   0  0  0  0  0  0  0  0  0  0  0  0
   24.0933    0.3584  -13.2407 C   0  0  2  0  0  0  0  0  0  0  0  0
   25.2424    0.0826  -14.0861 N   0  0  0  0  0  0  0  0  0  0  0  0
   24.2483   -0.4355  -11.9937 C   0  0  1  0  0  0  0  0  0  0  0  0
   25.2981    0.1182  -11.2639 O   0  0  0  0  0  0  0  0  0  0  0  0
   25.9157   -0.3529  -10.1359 C   0  0  0  0  0  0  0  0  0  0  0  0
   25.5314   -1.5088   -9.5110 C   0  0  0  0  0  0  0  0  0  0  0  0
   26.2141   -1.9196   -8.3648 C   0  0  0  0  0  0  0  0  0  0  0  0
   25.8154   -3.0781   -7.7538 F   0  0  0  0  0  0  0  0  0  0  0  0
   27.2641   -1.2073   -7.8326 C   0  0  0  0  0  0  0  0  0  0  0  0
   27.6230   -0.0451   -8.4920 C   0  0  0  0  0  0  0  0  0  0  0  0
   28.7234    0.7663   -7.9935 C   0  0  0  0  0  0  0  0  0  0  0  0
   29.5964    1.4183   -7.5758 N   0  0  0  0  0  0  0  0  0  0  0  0
   26.9809    0.3907   -9.6153 C   0  0  0  0  0  0  0  0  0  0  0  0
   23.0110   -0.4450  -11.1451 C   0  0  0  0  0  0  0  0  0  0  0  0
   22.5378    0.5911  -10.4650 C   0  0  0  0  0  0  0  0  0  0  0  0
   21.3679    0.4293   -9.7125 C   0  0  0  0  0  0  0  0  0  0  0  0
   20.9518   -1.2952  -10.0134 S   0  0  0  0  0  0  0  0  0  0  0  0
   22.3179   -1.6721  -11.0852 C   0  0  0  0  0  0  0  0  0  0  0  0
  1  2  1  6
  2  3  1  6
  2  4  1  0
  4  5  1  1
  5  6  1  0
  6  7  2  0
  7  8  1  0
  8  9  1  0
  8 10  2  0
 10 11  1  0
 11 12  1  0
 12 13  3  0
 11 14  2  0
  4 15  1  0
 15 16  1  0
 16 17  2  0
 17 18  1  0
 18 19  1  0
 14  6  1  0
 19 15  2  0
M  END
$$$$
