_rank4
     RDKit          3D

 19 20  0  0  0  0  0  0  0  0999 V2000
   27.3066   -0.8691  -12.7855 C   0  0  0  0  0  0  0  0  0  0  0  0
   26.4947    0.3724  -12.7023 C   0  0  2  0  0  0  0  0  0  0  0  0
   27.3987    1.5099  -12.6986 N   0  0  0  0  0  0  0  0  0  0  0  0
   25.6104    0.4935  -11.5136 C   0  0  1  0  0  0  0  0  0  0  0  0
   24.5965   -0.4539  -11.6386 O   0  0  0  0  0  0  0  0  0  0  0  0
   23.3416   -0.4612  -11.0901 C   0  0  0  0  0  0  0  0  0  0  0  0
   22.8106    0.6236  -10.4454 C   0  0  0  0  0  0  0  0  0  0  0  0
   21.5230    0.5337   -9.9138 C   0  0  0  0  0  0  0  0  0  0  0  0
   21.0090    1.6288   -9.2728 F   0  0  0  0  0  0  0  0  0  0  0  0
   20.7595   -0.6069  -10.0109 C   0  0  0  0  0  0  0  0  0  0  0  0
   21.3303   -1.6815  -10.6692 C   0  0  0  0  0  0  0  0  0  0  0  0
   20.5887   -2.9252  -10.8149 C   0  0  0  0  0  0  0  0  0  0  0  0
   19.9778   -3.9118  -10.9378 N   0  0  0  0  0  0  0  0  0  0  0  0
   22.5861   -1.6337  -11.2028 C   0  0  0  0  0  0  0  0  0  0  0  0
   26.3336    0.2715  -10.2179 C   0  0  0  0  0  0  0  0  0  0  0  0
   26.6021   -0.9114   -9.6807 C   0  0  0  0  0  0  0  0  0  0  0  0
   27.2859   -0.9605   -8.4595 C   0  0  0  0  0  0  0  0  0  0  0  0
   27.5413    0.7820   -8.0907 S   0  0  0  0  0  0  0  0  0  0  0  0
   26.7469    1.4368   -9.5389 C   0  0  0  0  0  0  0  0  0  0  0  0
  1  2  1  6
  2  3  1  1
  2  4  1  0
  4  5  1  6
  5  6  1  0
  6  7  2  0
  7  8  1  0
  8  9  1  0
  8 10  2  0
 10 11  1  0
 11 12  1  0
 12 13  3  0
 11 14  2  0
  4 15  1  0
 15 16  1  0
 16 17  2  0
 17 18  1  0
 18 19  1  0
 14  6  1  0
 19 15  2  0
M  END
$$$$
