_rank19
     RDKit          3D

 19 20  0  0  0  0  0  0  0  0999 V2000
   22.7635    0.2281  -13.9389 C   0  0  0  0  0  0  0  0  0  0  0  0
   23.8449    0.5969  -12.9891 C   0  0  2  0  0  0  0  0  0  0  0  0
   25.0403    0.9050  -13.7554 N   0  0  0  0  0  0  0  0  0  0  0  0
   24.2066   -0.4346  -11.9819 C   0  0  1  0  0  0  0  0  0  0  0  0
   25.0563    0.1587  -11.0506 O   0  0  0  0  0  0  0  0  0  0  0  0
   25.8149   -0.4247  -10.0709 C   0  0  0  0  0  0  0  0  0  0  0  0
   25.8974   -1.7818   -9.9099 C   0  0  0  0  0  0  0  0  0  0  0  0
   26.6938   -2.2962   -8.8855 C   0  0  0  0  0  0  0  0  0  0  0  0
   26.7638   -3.6558   -8.7401 F   0  0  0  0  0  0  0  0  0  0  0  0
   27.4044   -1.4918   -8.0245 C   0  0  0  0  0  0  0  0  0  0  0  0
   27.2957   -0.1264   -8.2189 C   0  0  0  0  0  0  0  0  0  0  0  0
   28.0156    0.7936   -7.3510 C   0  0  0  0  0  0  0  0  0  0  0  0
   28.5782    1.5291   -6.6410 N   0  0  0  0  0  0  0  0  0  0  0  0
   26.5277    0.4162   -9.2088 C   0  0  0  0  0  0  0  0  0  0  0  0
   23.0153   -1.0028  -11.2684 C   0  0  0  0  0  0  0  0  0  0  0  0
   22.5072   -2.2125  -11.4644 C   0  0  0  0  0  0  0  0  0  0  0  0
   21.3862   -2.6040  -10.7220 C   0  0  0  0  0  0  0  0  0  0  0  0
   21.0702   -1.1524   -9.7069 S   0  0  0  0  0  0  0  0  0  0  0  0
   22.4074   -0.1550  -10.3190 C   0  0  0  0  0  0  0  0  0  0  0  0
  1  2  1  6
  2  3  1  6
  2  4  1  0
  4  5  1  1
  5  6  1  0
  6  7  2  0
  7  8  1  0
  8  9  1  0
  8 10  2  0
 10 11  1  0
 11 12  1  0
 12 13  3  0
 11 14  2  0
  4 15  1  0
 15 16  1  0
 16 17  2  0
 17 18  1  0
 18 19  1  0
 14  6  1  0
 19 15  2  0
M  END
$$$$
