_rank19
     RDKit          3D

 16 17  0  0  0  0  0  0  0  0999 V2000
   25.3747   -0.3610   -6.5108 N   0  0  0  0  0  0  0  0  0  0  0  0
   24.7292   -0.4293   -7.4794 C   0  0  0  0  0  0  0  0  0  0  0  0
   23.9194   -0.4944   -8.6759 C   0  0  0  0  0  0  0  0  0  0  0  0
   22.6682   -1.0494   -8.5961 C   0  0  0  0  0  0  0  0  0  0  0  0
   21.8913   -1.1185   -9.7160 C   0  0  0  0  0  0  0  0  0  0  0  0
   20.6640   -1.6657   -9.6260 F   0  0  0  0  0  0  0  0  0  0  0  0
   22.3927   -0.6233  -10.9056 C   0  0  0  0  0  0  0  0  0  0  0  0
   23.6413   -0.0589  -11.0299 C   0  0  0  0  0  0  0  0  0  0  0  0
   24.1745    0.4445  -12.1963 O   0  0  0  0  0  0  0  0  0  0  0  0
   25.5073    0.4292  -12.5527 C   0  0  1  0  0  0  0  0  0  0  0  0
   25.7467   -0.7767  -13.4789 C   0  0  0  0  0  0  0  0  0  0  0  0
   25.4582   -0.3291  -14.8084 N   0  0  0  0  0  0  0  0  0  0  0  0
   25.1367    1.0625  -14.7742 C   0  0  0  0  0  0  0  0  0  0  0  0
   25.8603    1.5499  -13.5383 C   0  0  2  0  0  0  0  0  0  0  0  0
   27.2239    1.5458  -13.7339 O   0  0  0  0  0  0  0  0  0  0  0  0
   24.4122   -0.0040   -9.8607 C   0  0  0  0  0  0  0  0  0  0  0  0
  1  2  3  0
  2  3  1  0
  3  4  2  0
  4  5  1  0
  5  6  1  0
  5  7  2  0
  7  8  1  0
  8  9  1  0
 10  9  1  6
 10 11  1  0
 11 12  1  1
 13 12  1  6
 13 14  1  0
 14 15  1  6
  8 16  2  0
 16  3  1  0
 14 10  1  0
M  END
$$$$
