_rank12
     RDKit          3D

 16 17  0  0  0  0  0  0  0  0999 V2000
   28.0643    0.8028   -6.8988 N   0  0  0  0  0  0  0  0  0  0  0  0
   27.5170    0.4153   -7.8526 C   0  0  0  0  0  0  0  0  0  0  0  0
   26.8191   -0.0570   -9.0281 C   0  0  0  0  0  0  0  0  0  0  0  0
   27.5527   -0.5360  -10.0827 C   0  0  0  0  0  0  0  0  0  0  0  0
   26.9094   -0.9853  -11.1993 C   0  0  0  0  0  0  0  0  0  0  0  0
   27.6400   -1.4537  -12.2292 F   0  0  0  0  0  0  0  0  0  0  0  0
   25.5277   -0.9438  -11.2337 C   0  0  0  0  0  0  0  0  0  0  0  0
   24.7538   -0.4715  -10.1989 C   0  0  0  0  0  0  0  0  0  0  0  0
   23.3772   -0.4145  -10.1965 O   0  0  0  0  0  0  0  0  0  0  0  0
   22.5440   -0.8697  -11.1976 C   0  0  1  0  0  0  0  0  0  0  0  0
   22.0323   -2.2669  -10.8032 C   0  0  0  0  0  0  0  0  0  0  0  0
   20.8612   -2.0585  -10.0057 N   0  0  0  0  0  0  0  0  0  0  0  0
   20.5789   -0.6593   -9.9456 C   0  0  0  0  0  0  0  0  0  0  0  0
   21.2005   -0.1304  -11.2193 C   0  0  2  0  0  0  0  0  0  0  0  0
   20.4899   -0.5486  -12.3229 O   0  0  0  0  0  0  0  0  0  0  0  0
   25.4465   -0.0181   -9.0680 C   0  0  0  0  0  0  0  0  0  0  0  0
  1  2  3  0
  2  3  1  0
  3  4  2  0
  4  5  1  0
  5  6  1  0
  5  7  2  0
  7  8  1  0
  8  9  1  0
 10  9  1  1
 10 11  1  0
 11 12  1  1
 13 12  1  6
 13 14  1  0
 14 15  1  6
  8 16  2  0
 16  3  1  0
 14 10  1  0
M  END
$$$$
