_rank8
     RDKit          3D

 16 17  0  0  0  0  0  0  0  0999 V2000
   28.2203    0.4709   -6.9698 N   0  0  0  0  0  0  0  0  0  0  0  0
   27.5761    0.2275   -7.9107 C   0  0  0  0  0  0  0  0  0  0  0  0
   26.7860   -0.0947   -9.0784 C   0  0  0  0  0  0  0  0  0  0  0  0
   27.4281   -0.5235  -10.2114 C   0  0  0  0  0  0  0  0  0  0  0  0
   26.6971   -0.8316  -11.3219 C   0  0  0  0  0  0  0  0  0  0  0  0
   27.3382   -1.2519  -12.4292 F   0  0  0  0  0  0  0  0  0  0  0  0
   25.3215   -0.7011  -11.2707 C   0  0  0  0  0  0  0  0  0  0  0  0
   24.6377   -0.2747  -10.1556 C   0  0  0  0  0  0  0  0  0  0  0  0
   23.2702   -0.1324  -10.0669 O   0  0  0  0  0  0  0  0  0  0  0  0
   22.3610   -0.3799  -11.0747 C   0  0  1  0  0  0  0  0  0  0  0  0
   22.1591   -1.9022  -11.1811 C   0  0  0  0  0  0  0  0  0  0  0  0
   21.1261   -2.2393  -10.2483 N   0  0  0  0  0  0  0  0  0  0  0  0
   20.6352   -1.0429   -9.6410 C   0  0  0  0  0  0  0  0  0  0  0  0
   20.9322    0.0146  -10.6811 C   0  0  2  0  0  0  0  0  0  0  0  0
   20.1184   -0.1371  -11.7821 O   0  0  0  0  0  0  0  0  0  0  0  0
   25.4190    0.0331   -9.0335 C   0  0  0  0  0  0  0  0  0  0  0  0
  1  2  3  0
  2  3  1  0
  3  4  2  0
  4  5  1  0
  5  6  1  0
  5  7  2  0
  7  8  1  0
  8  9  1  0
 10  9  1  1
 10 11  1  0
 11 12  1  1
 13 12  1  6
 13 14  1  0
 14 15  1  6
  8 16  2  0
 16  3  1  0
 14 10  1  0
M  END
$$$$
