_rank16
     RDKit          3D

 16 17  0  0  0  0  0  0  0  0999 V2000
   19.9294   -3.1762   -9.3107 N   0  0  0  0  0  0  0  0  0  0  0  0
   20.7461   -2.5439   -9.8517 C   0  0  0  0  0  0  0  0  0  0  0  0
   21.7656   -1.7515  -10.5032 C   0  0  0  0  0  0  0  0  0  0  0  0
   21.4265   -1.0272  -11.6169 C   0  0  0  0  0  0  0  0  0  0  0  0
   22.3768   -0.2743  -12.2435 C   0  0  0  0  0  0  0  0  0  0  0  0
   22.0327    0.4331  -13.3366 F   0  0  0  0  0  0  0  0  0  0  0  0
   23.6618   -0.2644  -11.7328 C   0  0  0  0  0  0  0  0  0  0  0  0
   24.0443   -0.9756  -10.6189 C   0  0  0  0  0  0  0  0  0  0  0  0
   25.3128   -0.9906  -10.0814 O   0  0  0  0  0  0  0  0  0  0  0  0
   26.2815   -0.0244  -10.2592 C   0  0  1  0  0  0  0  0  0  0  0  0
   26.4340    0.7562   -8.9414 C   0  0  0  0  0  0  0  0  0  0  0  0
   27.3849    0.0337   -8.1510 N   0  0  0  0  0  0  0  0  0  0  0  0
   27.8753   -1.0751   -8.9067 C   0  0  0  0  0  0  0  0  0  0  0  0
   27.6923   -0.6207  -10.3379 C   0  0  2  0  0  0  0  0  0  0  0  0
   28.5762    0.3890  -10.6494 O   0  0  0  0  0  0  0  0  0  0  0  0
   23.0438   -1.7377  -10.0004 C   0  0  0  0  0  0  0  0  0  0  0  0
  1  2  3  0
  2  3  1  0
  3  4  2  0
  4  5  1  0
  5  6  1  0
  5  7  2  0
  7  8  1  0
  8  9  1  0
 10  9  1  1
 10 11  1  0
 11 12  1  1
 13 12  1  6
 13 14  1  0
 14 15  1  1
  8 16  2  0
 16  3  1  0
 14 10  1  0
M  END
$$$$
