_rank15
     RDKit          3D

 16 17  0  0  0  0  0  0  0  0999 V2000
   19.9079   -3.1623   -8.8981 N   0  0  0  0  0  0  0  0  0  0  0  0
   20.6505   -2.5520   -9.5581 C   0  0  0  0  0  0  0  0  0  0  0  0
   21.5878   -1.8093  -10.3715 C   0  0  0  0  0  0  0  0  0  0  0  0
   21.1103   -1.0859  -11.4337 C   0  0  0  0  0  0  0  0  0  0  0  0
   21.9816   -0.3795  -12.2112 C   0  0  0  0  0  0  0  0  0  0  0  0
   21.5016    0.3275  -13.2521 F   0  0  0  0  0  0  0  0  0  0  0  0
   23.3289   -0.4150  -11.9021 C   0  0  0  0  0  0  0  0  0  0  0  0
   23.8498   -1.1271  -10.8465 C   0  0  0  0  0  0  0  0  0  0  0  0
   25.1840   -1.1865  -10.5079 O   0  0  0  0  0  0  0  0  0  0  0  0
   26.0442   -0.1126  -10.4053 C   0  0  1  0  0  0  0  0  0  0  0  0
   26.0186    0.3905   -8.9508 C   0  0  0  0  0  0  0  0  0  0  0  0
   26.9927   -0.3810   -8.2387 N   0  0  0  0  0  0  0  0  0  0  0  0
   27.6565   -1.2554   -9.1531 C   0  0  0  0  0  0  0  0  0  0  0  0
   27.5166   -0.5360  -10.4764 C   0  0  2  0  0  0  0  0  0  0  0  0
   28.2964    0.5993  -10.5030 O   0  0  0  0  0  0  0  0  0  0  0  0
   22.9274   -1.8408  -10.0692 C   0  0  0  0  0  0  0  0  0  0  0  0
  1  2  3  0
  2  3  1  0
  3  4  2  0
  4  5  1  0
  5  6  1  0
  5  7  2  0
  7  8  1  0
  8  9  1  0
 10  9  1  1
 10 11  1  0
 11 12  1  1
 13 12  1  6
 13 14  1  0
 14 15  1  1
  8 16  2  0
 16  3  1  0
 14 10  1  0
M  END
$$$$
