_rank3
     RDKit          3D

 16 17  0  0  0  0  0  0  0  0999 V2000
   18.6940    2.2452   -9.6211 N   0  0  0  0  0  0  0  0  0  0  0  0
   19.4833    1.4231   -9.8674 C   0  0  0  0  0  0  0  0  0  0  0  0
   20.4744    0.4100  -10.1554 C   0  0  0  0  0  0  0  0  0  0  0  0
   20.0525   -0.8230  -10.5817 C   0  0  0  0  0  0  0  0  0  0  0  0
   20.9750   -1.7901  -10.8577 C   0  0  0  0  0  0  0  0  0  0  0  0
   20.5494   -2.9975  -11.2757 F   0  0  0  0  0  0  0  0  0  0  0  0
   22.3166   -1.4955  -10.6981 C   0  0  0  0  0  0  0  0  0  0  0  0
   22.7827   -0.2728  -10.2731 C   0  0  0  0  0  0  0  0  0  0  0  0
   24.1093    0.0574  -10.1025 O   0  0  0  0  0  0  0  0  0  0  0  0
   25.0583   -0.7038   -9.4516 C   0  0  1  0  0  0  0  0  0  0  0  0
   25.8356   -1.5127  -10.5055 C   0  0  0  0  0  0  0  0  0  0  0  0
   26.9046   -0.6715  -10.9536 N   0  0  0  0  0  0  0  0  0  0  0  0
   26.8846    0.5473  -10.2085 C   0  0  0  0  0  0  0  0  0  0  0  0
   26.2167    0.1444   -8.9124 C   0  0  2  0  0  0  0  0  0  0  0  0
   27.0421   -0.6679   -8.1663 O   0  0  0  0  0  0  0  0  0  0  0  0
   21.8086    0.6969   -9.9987 C   0  0  0  0  0  0  0  0  0  0  0  0
  1  2  3  0
  2  3  1  0
  3  4  2  0
  4  5  1  0
  5  6  1  0
  5  7  2  0
  7  8  1  0
  8  9  1  0
 10  9  1  6
 10 11  1  0
 11 12  1  1
 13 12  1  6
 13 14  1  0
 14 15  1  1
  8 16  2  0
 16  3  1  0
 14 10  1  0
M  END
$$$$
