_rank10
     RDKit          3D

 16 17  0  0  0  0  0  0  0  0999 V2000
   28.2064    0.3238   -7.1927 N   0  0  0  0  0  0  0  0  0  0  0  0
   27.5902    0.2356   -8.1786 C   0  0  0  0  0  0  0  0  0  0  0  0
   26.8121    0.1119   -9.3915 C   0  0  0  0  0  0  0  0  0  0  0  0
   27.4168    0.3776  -10.5929 C   0  0  0  0  0  0  0  0  0  0  0  0
   26.6966    0.2655  -11.7467 C   0  0  0  0  0  0  0  0  0  0  0  0
   27.3007    0.5290  -12.9212 F   0  0  0  0  0  0  0  0  0  0  0  0
   25.3696   -0.1152  -11.6688 C   0  0  0  0  0  0  0  0  0  0  0  0
   24.7244   -0.3910  -10.4854 C   0  0  0  0  0  0  0  0  0  0  0  0
   23.4057   -0.7725  -10.3682 O   0  0  0  0  0  0  0  0  0  0  0  0
   22.3935   -0.4797  -11.2588 C   0  0  1  0  0  0  0  0  0  0  0  0
   21.7921   -1.8048  -11.7606 C   0  0  0  0  0  0  0  0  0  0  0  0
   20.7766   -2.1702  -10.8193 N   0  0  0  0  0  0  0  0  0  0  0  0
   20.6618   -1.1434   -9.8326 C   0  0  0  0  0  0  0  0  0  0  0  0
   21.1504    0.0881  -10.5628 C   0  0  2  0  0  0  0  0  0  0  0  0
   20.2484    0.4765  -11.5288 O   0  0  0  0  0  0  0  0  0  0  0  0
   25.4934   -0.2661   -9.3203 C   0  0  0  0  0  0  0  0  0  0  0  0
  1  2  3  0
  2  3  1  0
  3  4  2  0
  4  5  1  0
  5  6  1  0
  5  7  2  0
  7  8  1  0
  8  9  1  0
 10  9  1  1
 10 11  1  0
 11 12  1  1
 13 12  1  6
 13 14  1  0
 14 15  1  6
  8 16  2  0
 16  3  1  0
 14 10  1  0
M  END
$$$$
