_rank13
     RDKit          3D

 16 17  0  0  0  0  0  0  0  0999 V2000
   28.1585    1.9288  -12.2080 N   0  0  0  0  0  0  0  0  0  0  0  0
   27.4744    1.2092  -11.5967 C   0  0  0  0  0  0  0  0  0  0  0  0
   26.6082    0.3237  -10.8502 C   0  0  0  0  0  0  0  0  0  0  0  0
   27.1727   -0.5659   -9.9728 C   0  0  0  0  0  0  0  0  0  0  0  0
   26.3694   -1.4085   -9.2607 C   0  0  0  0  0  0  0  0  0  0  0  0
   26.9346   -2.2783   -8.4017 F   0  0  0  0  0  0  0  0  0  0  0  0
   25.0009   -1.3392   -9.4465 C   0  0  0  0  0  0  0  0  0  0  0  0
   24.3936   -0.4624  -10.3157 C   0  0  0  0  0  0  0  0  0  0  0  0
   23.0358   -0.3642  -10.5275 O   0  0  0  0  0  0  0  0  0  0  0  0
   22.2700   -1.2174  -11.2951 C   0  0  1  0  0  0  0  0  0  0  0  0
   21.8417   -2.4063  -10.4162 C   0  0  0  0  0  0  0  0  0  0  0  0
   20.6328   -2.0088   -9.7593 N   0  0  0  0  0  0  0  0  0  0  0  0
   20.2538   -0.7112  -10.2217 C   0  0  0  0  0  0  0  0  0  0  0  0
   20.8807   -0.6420  -11.5967 C   0  0  2  0  0  0  0  0  0  0  0  0
   20.2382   -1.4892  -12.4726 O   0  0  0  0  0  0  0  0  0  0  0  0
   25.2480    0.3881  -11.0307 C   0  0  0  0  0  0  0  0  0  0  0  0
  1  2  3  0
  2  3  1  0
  3  4  2  0
  4  5  1  0
  5  6  1  0
  5  7  2  0
  7  8  1  0
  8  9  1  0
 10  9  1  1
 10 11  1  0
 11 12  1  1
 13 12  1  6
 13 14  1  0
 14 15  1  6
  8 16  2  0
 16  3  1  0
 14 10  1  0
M  END
$$$$
