_rank18
     RDKit          3D

 16 17  0  0  0  0  0  0  0  0999 V2000
   29.2449   -0.4363   -6.5467 N   0  0  0  0  0  0  0  0  0  0  0  0
   28.2815   -0.3983   -7.2024 C   0  0  0  0  0  0  0  0  0  0  0  0
   27.0975   -0.3616   -8.0321 C   0  0  0  0  0  0  0  0  0  0  0  0
   25.9680   -1.0066   -7.5984 C   0  0  0  0  0  0  0  0  0  0  0  0
   24.8423   -0.9816   -8.3695 C   0  0  0  0  0  0  0  0  0  0  0  0
   23.7386   -1.6186   -7.9338 F   0  0  0  0  0  0  0  0  0  0  0  0
   24.8748   -0.3019   -9.5733 C   0  0  0  0  0  0  0  0  0  0  0  0
   25.9858    0.3580  -10.0457 C   0  0  0  0  0  0  0  0  0  0  0  0
   26.0562    1.0449  -11.2379 O   0  0  0  0  0  0  0  0  0  0  0  0
   25.8090    0.5235  -12.4911 C   0  0  1  0  0  0  0  0  0  0  0  0
   24.3954   -0.0856  -12.4917 C   0  0  0  0  0  0  0  0  0  0  0  0
   23.4965    0.9789  -12.8231 N   0  0  0  0  0  0  0  0  0  0  0  0
   24.2512    2.1611  -13.0951 C   0  0  0  0  0  0  0  0  0  0  0  0
   25.5890    1.6164  -13.5444 C   0  0  2  0  0  0  0  0  0  0  0  0
   25.4852    1.0170  -14.7804 O   0  0  0  0  0  0  0  0  0  0  0  0
   27.1239    0.3121   -9.2290 C   0  0  0  0  0  0  0  0  0  0  0  0
  1  2  3  0
  2  3  1  0
  3  4  2  0
  4  5  1  0
  5  6  1  0
  5  7  2  0
  7  8  1  0
  8  9  1  0
 10  9  1  1
 10 11  1  0
 11 12  1  1
 13 12  1  6
 13 14  1  0
 14 15  1  6
  8 16  2  0
 16  3  1  0
 14 10  1  0
M  END
$$$$
