_rank9
     RDKit          3D

 16 17  0  0  0  0  0  0  0  0999 V2000
   28.2122    0.2422   -7.1165 N   0  0  0  0  0  0  0  0  0  0  0  0
   27.5746    0.1824   -8.0908 C   0  0  0  0  0  0  0  0  0  0  0  0
   26.7861    0.0861   -9.2994 C   0  0  0  0  0  0  0  0  0  0  0  0
   27.3687    0.4186  -10.4951 C   0  0  0  0  0  0  0  0  0  0  0  0
   26.6384    0.3332  -11.6449 C   0  0  0  0  0  0  0  0  0  0  0  0
   27.2208    0.6623  -12.8138 F   0  0  0  0  0  0  0  0  0  0  0  0
   25.3239   -0.0889  -11.5688 C   0  0  0  0  0  0  0  0  0  0  0  0
   24.7009   -0.4318  -10.3910 C   0  0  0  0  0  0  0  0  0  0  0  0
   23.3951   -0.8560  -10.2758 O   0  0  0  0  0  0  0  0  0  0  0  0
   22.3682   -0.5699  -11.1516 C   0  0  1  0  0  0  0  0  0  0  0  0
   21.6968   -1.8938  -11.5591 C   0  0  0  0  0  0  0  0  0  0  0  0
   20.6974   -2.1620  -10.5689 N   0  0  0  0  0  0  0  0  0  0  0  0
   20.6566   -1.0777   -9.6396 C   0  0  0  0  0  0  0  0  0  0  0  0
   21.1723    0.0889  -10.4529 C   0  0  2  0  0  0  0  0  0  0  0  0
   20.2569    0.4613  -11.4126 O   0  0  0  0  0  0  0  0  0  0  0  0
   25.4796   -0.3326   -9.2299 C   0  0  0  0  0  0  0  0  0  0  0  0
  1  2  3  0
  2  3  1  0
  3  4  2  0
  4  5  1  0
  5  6  1  0
  5  7  2  0
  7  8  1  0
  8  9  1  0
 10  9  1  1
 10 11  1  0
 11 12  1  1
 13 12  1  6
 13 14  1  0
 14 15  1  6
  8 16  2  0
 16  3  1  0
 14 10  1  0
M  END
$$$$
