_rank6
     RDKit          3D

 16 17  0  0  0  0  0  0  0  0999 V2000
   27.7547   -0.9532   -7.6904 N   0  0  0  0  0  0  0  0  0  0  0  0
   27.2128   -0.7507   -8.7027 C   0  0  0  0  0  0  0  0  0  0  0  0
   26.5429   -0.4777   -9.9551 C   0  0  0  0  0  0  0  0  0  0  0  0
   27.2877   -0.0393  -11.0195 C   0  0  0  0  0  0  0  0  0  0  0  0
   26.6709    0.2229  -12.2083 C   0  0  0  0  0  0  0  0  0  0  0  0
   27.4122    0.6530  -13.2471 F   0  0  0  0  0  0  0  0  0  0  0  0
   25.3040    0.0373  -12.3043 C   0  0  0  0  0  0  0  0  0  0  0  0
   24.5196   -0.4005  -11.2622 C   0  0  0  0  0  0  0  0  0  0  0  0
   23.1572   -0.5969  -11.3197 O   0  0  0  0  0  0  0  0  0  0  0  0
   22.4134   -1.3833  -10.4641 C   0  0  1  0  0  0  0  0  0  0  0  0
   21.5523   -0.4598   -9.5836 C   0  0  0  0  0  0  0  0  0  0  0  0
   20.3444   -0.2162  -10.3134 N   0  0  0  0  0  0  0  0  0  0  0  0
   20.3696   -0.9717  -11.5257 C   0  0  0  0  0  0  0  0  0  0  0  0
   21.2852   -2.1278  -11.1887 C   0  0  2  0  0  0  0  0  0  0  0  0
   20.6838   -2.9860  -10.2944 O   0  0  0  0  0  0  0  0  0  0  0  0
   25.1852   -0.6602  -10.0563 C   0  0  0  0  0  0  0  0  0  0  0  0
  1  2  3  0
  2  3  1  0
  3  4  2  0
  4  5  1  0
  5  6  1  0
  5  7  2  0
  7  8  1  0
  8  9  1  0
 10  9  1  6
 10 11  1  0
 11 12  1  1
 13 12  1  6
 13 14  1  0
 14 15  1  1
  8 16  2  0
 16  3  1  0
 14 10  1  0
M  END
$$$$
