_rank11
     RDKit          3D

 17 18  0  0  0  0  0  0  0  0999 V2000
   19.6822   -4.0666   -9.1506 N   0  0  0  0  0  0  0  0  0  0  0  0
   20.2236   -3.1264   -9.5762 C   0  0  0  0  0  0  0  0  0  0  0  0
   20.9089   -1.9720  -10.0900 C   0  0  0  0  0  0  0  0  0  0  0  0
   20.1944   -1.0244  -10.7612 C   0  0  0  0  0  0  0  0  0  0  0  0
   20.7949    0.1023  -11.2759 C   0  0  0  0  0  0  0  0  0  0  0  0
   20.1231    1.0626  -11.9459 F   0  0  0  0  0  0  0  0  0  0  0  0
   22.1638    0.2680  -11.1014 C   0  0  0  0  0  0  0  0  0  0  0  0
   22.9139   -0.6660  -10.4309 C   0  0  0  0  0  0  0  0  0  0  0  0
   24.2440   -0.5281  -10.2484 O   0  0  0  0  0  0  0  0  0  0  0  0
   25.1510    0.3799  -10.7419 C   0  0  2  0  0  0  0  0  0  0  0  0
   25.5922    0.1168  -12.1607 C   0  0  0  0  0  0  0  0  0  0  0  0
   26.8470   -0.4871  -12.0894 O   0  0  0  0  0  0  0  0  0  0  0  0
   27.5210    0.2131  -11.0922 C   0  0  0  0  0  0  0  0  0  0  0  0
   26.4716    0.2924  -10.0023 C   0  0  1  0  0  0  0  0  0  0  0  0
   26.7315    1.4494   -9.2859 F   0  0  0  0  0  0  0  0  0  0  0  0
   26.5470   -0.8114   -9.1964 F   0  0  0  0  0  0  0  0  0  0  0  0
   22.2649   -1.8049   -9.9188 C   0  0  0  0  0  0  0  0  0  0  0  0
  1  2  3  0
  2  3  1  0
  3  4  2  0
  4  5  1  0
  5  6  1  0
  5  7  2  0
  7  8  1  0
  8  9  1  0
 10  9  1  1
 10 11  1  0
 11 12  1  1
 13 12  1  6
 13 14  1  0
 14 15  1  1
 14 16  1  0
  8 17  2  0
 17  3  1  0
 14 10  1  0
M  END
$$$$
