_rank9
     RDKit          3D

 17 18  0  0  0  0  0  0  0  0999 V2000
   28.6803    0.6484  -12.6607 N   0  0  0  0  0  0  0  0  0  0  0  0
   27.8148    0.4317  -11.9108 C   0  0  0  0  0  0  0  0  0  0  0  0
   26.7616    0.1635  -10.9700 C   0  0  0  0  0  0  0  0  0  0  0  0
   27.0793   -0.0137   -9.6560 C   0  0  0  0  0  0  0  0  0  0  0  0
   26.1147   -0.2732   -8.7089 C   0  0  0  0  0  0  0  0  0  0  0  0
   26.3883   -0.4546   -7.3993 F   0  0  0  0  0  0  0  0  0  0  0  0
   24.7873   -0.3546   -9.1129 C   0  0  0  0  0  0  0  0  0  0  0  0
   24.4317   -0.1815  -10.4274 C   0  0  0  0  0  0  0  0  0  0  0  0
   23.1503   -0.2556  -10.8446 O   0  0  0  0  0  0  0  0  0  0  0  0
   22.0374   -0.8489  -10.2969 C   0  0  2  0  0  0  0  0  0  0  0  0
   21.9575   -2.3415  -10.5031 C   0  0  0  0  0  0  0  0  0  0  0  0
   21.0606   -2.5588  -11.5483 O   0  0  0  0  0  0  0  0  0  0  0  0
   20.0202   -1.6634  -11.3141 C   0  0  0  0  0  0  0  0  0  0  0  0
   20.7720   -0.3879  -10.9932 C   0  0  1  0  0  0  0  0  0  0  0  0
   19.9613    0.3461  -10.1425 F   0  0  0  0  0  0  0  0  0  0  0  0
   21.0321    0.3064  -12.1439 F   0  0  0  0  0  0  0  0  0  0  0  0
   25.4457    0.0823  -11.3670 C   0  0  0  0  0  0  0  0  0  0  0  0
  1  2  3  0
  2  3  1  0
  3  4  2  0
  4  5  1  0
  5  6  1  0
  5  7  2  0
  7  8  1  0
  8  9  1  0
 10  9  1  6
 10 11  1  0
 11 12  1  1
 13 12  1  6
 13 14  1  0
 14 15  1  1
 14 16  1  0
  8 17  2  0
 17  3  1  0
 14 10  1  0
M  END
$$$$
