_rank3
     RDKit          3D

 17 18  0  0  0  0  0  0  0  0999 V2000
   18.8646   -3.9039  -10.7948 N   0  0  0  0  0  0  0  0  0  0  0  0
   19.5147   -2.9432  -10.6823 C   0  0  0  0  0  0  0  0  0  0  0  0
   20.2987   -1.7466  -10.5418 C   0  0  0  0  0  0  0  0  0  0  0  0
   19.6638   -0.5673  -10.2868 C   0  0  0  0  0  0  0  0  0  0  0  0
   20.3606    0.6110  -10.1422 C   0  0  0  0  0  0  0  0  0  0  0  0
   19.7694    1.7981   -9.8895 F   0  0  0  0  0  0  0  0  0  0  0  0
   21.7452    0.5867  -10.2610 C   0  0  0  0  0  0  0  0  0  0  0  0
   22.4169   -0.5827  -10.5174 C   0  0  0  0  0  0  0  0  0  0  0  0
   23.7603   -0.6324  -10.6371 O   0  0  0  0  0  0  0  0  0  0  0  0
   24.7256    0.3452  -10.5825 C   0  0  2  0  0  0  0  0  0  0  0  0
   25.1864    0.8467  -11.9289 C   0  0  0  0  0  0  0  0  0  0  0  0
   26.4055    0.2254  -12.1972 O   0  0  0  0  0  0  0  0  0  0  0  0
   27.0912    0.2529  -10.9855 C   0  0  0  0  0  0  0  0  0  0  0  0
   26.0215   -0.1956  -10.0110 C   0  0  1  0  0  0  0  0  0  0  0  0
   26.3247    0.3910   -8.7929 F   0  0  0  0  0  0  0  0  0  0  0  0
   26.0191   -1.5608   -9.9114 F   0  0  0  0  0  0  0  0  0  0  0  0
   21.6705   -1.7674  -10.6589 C   0  0  0  0  0  0  0  0  0  0  0  0
  1  2  3  0
  2  3  1  0
  3  4  2  0
  4  5  1  0
  5  6  1  0
  5  7  2  0
  7  8  1  0
  8  9  1  0
 10  9  1  6
 10 11  1  0
 11 12  1  1
 13 12  1  6
 13 14  1  0
 14 15  1  1
 14 16  1  0
  8 17  2  0
 17  3  1  0
 14 10  1  0
M  END
$$$$
