_rank17
     RDKit          3D

 17 18  0  0  0  0  0  0  0  0999 V2000
   25.9457   -0.4102   -6.0560 N   0  0  0  0  0  0  0  0  0  0  0  0
   25.3401   -0.4739   -7.0498 C   0  0  0  0  0  0  0  0  0  0  0  0
   24.5768   -0.5423   -8.2659 C   0  0  0  0  0  0  0  0  0  0  0  0
   23.2808   -0.9617   -8.2094 C   0  0  0  0  0  0  0  0  0  0  0  0
   22.5001   -1.0478   -9.3400 C   0  0  0  0  0  0  0  0  0  0  0  0
   21.2140   -1.4580   -9.3258 F   0  0  0  0  0  0  0  0  0  0  0  0
   23.0568   -0.6963  -10.5640 C   0  0  0  0  0  0  0  0  0  0  0  0
   24.3583   -0.2700  -10.6576 C   0  0  0  0  0  0  0  0  0  0  0  0
   24.9217    0.0769  -11.8339 O   0  0  0  0  0  0  0  0  0  0  0  0
   24.4913   -0.0517  -13.1335 C   0  0  2  0  0  0  0  0  0  0  0  0
   25.3075   -1.0037  -13.9726 C   0  0  0  0  0  0  0  0  0  0  0  0
   26.1571   -0.2254  -14.7578 O   0  0  0  0  0  0  0  0  0  0  0  0
   25.3686    0.8407  -15.1831 C   0  0  0  0  0  0  0  0  0  0  0  0
   24.6701    1.2437  -13.9006 C   0  0  1  0  0  0  0  0  0  0  0  0
   23.4511    1.7899  -14.2686 F   0  0  0  0  0  0  0  0  0  0  0  0
   25.4301    2.1547  -13.2178 F   0  0  0  0  0  0  0  0  0  0  0  0
   25.1254   -0.1948   -9.4801 C   0  0  0  0  0  0  0  0  0  0  0  0
  1  2  3  0
  2  3  1  0
  3  4  2  0
  4  5  1  0
  5  6  1  0
  5  7  2  0
  7  8  1  0
  8  9  1  0
 10  9  1  1
 10 11  1  0
 11 12  1  1
 13 12  1  6
 13 14  1  0
 14 15  1  6
 14 16  1  0
  8 17  2  0
 17  3  1  0
 14 10  1  0
M  END
$$$$
