_rank6
     RDKit          3D

 17 18  0  0  0  0  0  0  0  0999 V2000
   28.2406    0.1068   -7.1581 N   0  0  0  0  0  0  0  0  0  0  0  0
   27.5783   -0.0299   -8.1073 C   0  0  0  0  0  0  0  0  0  0  0  0
   26.7496   -0.1816   -9.2720 C   0  0  0  0  0  0  0  0  0  0  0  0
   27.3060   -0.0115  -10.5050 C   0  0  0  0  0  0  0  0  0  0  0  0
   26.5634   -0.1438  -11.6565 C   0  0  0  0  0  0  0  0  0  0  0  0
   27.0767    0.0166  -12.8948 F   0  0  0  0  0  0  0  0  0  0  0  0
   25.2140   -0.4588  -11.5480 C   0  0  0  0  0  0  0  0  0  0  0  0
   24.6212   -0.6372  -10.3228 C   0  0  0  0  0  0  0  0  0  0  0  0
   23.3134   -0.9434  -10.1912 O   0  0  0  0  0  0  0  0  0  0  0  0
   22.2379   -0.7652  -11.0292 C   0  0  2  0  0  0  0  0  0  0  0  0
   21.2076    0.2159  -10.5264 C   0  0  0  0  0  0  0  0  0  0  0  0
   20.1570   -0.5343   -9.9996 O   0  0  0  0  0  0  0  0  0  0  0  0
   19.9833   -1.5819  -10.9003 C   0  0  0  0  0  0  0  0  0  0  0  0
   21.4108   -2.0312  -11.1360 C   0  0  1  0  0  0  0  0  0  0  0  0
   21.4530   -2.5606  -12.4157 F   0  0  0  0  0  0  0  0  0  0  0  0
   21.7680   -2.9689  -10.2049 F   0  0  0  0  0  0  0  0  0  0  0  0
   25.4125   -0.4937   -9.1680 C   0  0  0  0  0  0  0  0  0  0  0  0
  1  2  3  0
  2  3  1  0
  3  4  2  0
  4  5  1  0
  5  6  1  0
  5  7  2  0
  7  8  1  0
  8  9  1  0
 10  9  1  1
 10 11  1  0
 11 12  1  1
 13 12  1  6
 13 14  1  0
 14 15  1  6
 14 16  1  0
  8 17  2  0
 17  3  1  0
 14 10  1  0
M  END
$$$$
