_rank18
     RDKit          3D

 17 18  0  0  0  0  0  0  0  0999 V2000
   29.2360   -0.3118   -8.4212 N   0  0  0  0  0  0  0  0  0  0  0  0
   28.0740   -0.2594   -8.4934 C   0  0  0  0  0  0  0  0  0  0  0  0
   26.6418   -0.2017   -8.6027 C   0  0  0  0  0  0  0  0  0  0  0  0
   25.8965   -0.0982   -7.4658 C   0  0  0  0  0  0  0  0  0  0  0  0
   24.5218   -0.0389   -7.5070 C   0  0  0  0  0  0  0  0  0  0  0  0
   23.7488    0.0638   -6.4049 F   0  0  0  0  0  0  0  0  0  0  0  0
   23.8883   -0.0865   -8.7431 C   0  0  0  0  0  0  0  0  0  0  0  0
   24.6074   -0.1906   -9.9078 C   0  0  0  0  0  0  0  0  0  0  0  0
   24.0159   -0.2386  -11.1199 O   0  0  0  0  0  0  0  0  0  0  0  0
   22.7050   -0.4105  -11.4976 C   0  0  2  0  0  0  0  0  0  0  0  0
   21.9291   -1.3826  -10.6435 C   0  0  0  0  0  0  0  0  0  0  0  0
   21.8670   -2.5830  -11.3502 O   0  0  0  0  0  0  0  0  0  0  0  0
   21.6214   -2.2058  -12.6680 C   0  0  0  0  0  0  0  0  0  0  0  0
   22.6092   -1.0729  -12.8580 C   0  0  1  0  0  0  0  0  0  0  0  0
   22.0579   -0.2211  -13.8014 F   0  0  0  0  0  0  0  0  0  0  0  0
   23.8126   -1.5657  -13.2852 F   0  0  0  0  0  0  0  0  0  0  0  0
   26.0112   -0.2487   -9.8259 C   0  0  0  0  0  0  0  0  0  0  0  0
  1  2  3  0
  2  3  1  0
  3  4  2  0
  4  5  1  0
  5  6  1  0
  5  7  2  0
  7  8  1  0
  8  9  1  0
 10  9  1  1
 10 11  1  0
 11 12  1  1
 13 12  1  6
 13 14  1  0
 14 15  1  6
 14 16  1  0
  8 17  2  0
 17  3  1  0
 14 10  1  0
M  END
$$$$
