_rank19
     RDKit          3D

 17 18  0  0  0  0  0  0  0  0999 V2000
   29.3907    0.5217   -7.8873 N   0  0  0  0  0  0  0  0  0  0  0  0
   28.2658    0.3328   -8.1264 C   0  0  0  0  0  0  0  0  0  0  0  0
   26.8732    0.1173   -8.4101 C   0  0  0  0  0  0  0  0  0  0  0  0
   26.0102   -0.0762   -7.3726 C   0  0  0  0  0  0  0  0  0  0  0  0
   24.6661   -0.2874   -7.5816 C   0  0  0  0  0  0  0  0  0  0  0  0
   23.7799   -0.4828   -6.5820 F   0  0  0  0  0  0  0  0  0  0  0  0
   24.1876   -0.3018   -8.8864 C   0  0  0  0  0  0  0  0  0  0  0  0
   25.0281   -0.1105   -9.9547 C   0  0  0  0  0  0  0  0  0  0  0  0
   24.5880   -0.1201  -11.2305 O   0  0  0  0  0  0  0  0  0  0  0  0
   23.3253   -0.2077  -11.7675 C   0  0  2  0  0  0  0  0  0  0  0  0
   22.8492   -1.6166  -12.0225 C   0  0  0  0  0  0  0  0  0  0  0  0
   23.0068   -1.8568  -13.3870 O   0  0  0  0  0  0  0  0  0  0  0  0
   22.5898   -0.6802  -14.0042 C   0  0  0  0  0  0  0  0  0  0  0  0
   23.2832    0.3747  -13.1666 C   0  0  1  0  0  0  0  0  0  0  0  0
   22.4895    1.5090  -13.2222 F   0  0  0  0  0  0  0  0  0  0  0  0
   24.5327    0.6248  -13.6663 F   0  0  0  0  0  0  0  0  0  0  0  0
   26.3960    0.1024   -9.7017 C   0  0  0  0  0  0  0  0  0  0  0  0
  1  2  3  0
  2  3  1  0
  3  4  2  0
  4  5  1  0
  5  6  1  0
  5  7  2  0
  7  8  1  0
  8  9  1  0
 10  9  1  6
 10 11  1  0
 11 12  1  1
 13 12  1  6
 13 14  1  0
 14 15  1  1
 14 16  1  0
  8 17  2  0
 17  3  1  0
 14 10  1  0
M  END
$$$$
