_rank12
     RDKit          3D

 17 18  0  0  0  0  0  0  0  0999 V2000
   18.8235   -0.4187   -8.4009 N   0  0  0  0  0  0  0  0  0  0  0  0
   19.7246   -0.6033   -9.1165 C   0  0  0  0  0  0  0  0  0  0  0  0
   20.8327   -0.8118  -10.0082 C   0  0  0  0  0  0  0  0  0  0  0  0
   20.5898   -1.2838  -11.2641 C   0  0  0  0  0  0  0  0  0  0  0  0
   21.6096   -1.5034  -12.1623 C   0  0  0  0  0  0  0  0  0  0  0  0
   21.4106   -1.9694  -13.4136 F   0  0  0  0  0  0  0  0  0  0  0  0
   22.9152   -1.2340  -11.7689 C   0  0  0  0  0  0  0  0  0  0  0  0
   23.1959   -0.7581  -10.5123 C   0  0  0  0  0  0  0  0  0  0  0  0
   24.4547   -0.4889  -10.1067 O   0  0  0  0  0  0  0  0  0  0  0  0
   25.6449   -0.4114  -10.7907 C   0  0  2  0  0  0  0  0  0  0  0  0
   26.3393   -1.7358  -10.9919 C   0  0  0  0  0  0  0  0  0  0  0  0
   27.3566   -1.8085  -10.0411 O   0  0  0  0  0  0  0  0  0  0  0  0
   27.9175   -0.5341  -10.0243 C   0  0  0  0  0  0  0  0  0  0  0  0
   26.6866    0.3486   -9.9934 C   0  0  1  0  0  0  0  0  0  0  0  0
   27.0360    1.5369  -10.6144 F   0  0  0  0  0  0  0  0  0  0  0  0
   26.2974    0.5669   -8.6993 F   0  0  0  0  0  0  0  0  0  0  0  0
   22.1272   -0.5460   -9.6216 C   0  0  0  0  0  0  0  0  0  0  0  0
  1  2  3  0
  2  3  1  0
  3  4  2  0
  4  5  1  0
  5  6  1  0
  5  7  2  0
  7  8  1  0
  8  9  1  0
 10  9  1  1
 10 11  1  0
 11 12  1  1
 13 12  1  6
 13 14  1  0
 14 15  1  6
 14 16  1  0
  8 17  2  0
 17  3  1  0
 14 10  1  0
M  END
$$$$
