_rank8
     RDKit          3D

 17 18  0  0  0  0  0  0  0  0999 V2000
   28.0698    0.4935   -7.2446 N   0  0  0  0  0  0  0  0  0  0  0  0
   27.4385    0.3039   -8.2058 C   0  0  0  0  0  0  0  0  0  0  0  0
   26.6474    0.0867   -9.3862 C   0  0  0  0  0  0  0  0  0  0  0  0
   27.2347    0.2231  -10.6090 C   0  0  0  0  0  0  0  0  0  0  0  0
   26.5287    0.0279  -11.7745 C   0  0  0  0  0  0  0  0  0  0  0  0
   27.0734    0.1534  -13.0035 F   0  0  0  0  0  0  0  0  0  0  0  0
   25.1848   -0.3164  -11.6912 C   0  0  0  0  0  0  0  0  0  0  0  0
   24.5615   -0.4622  -10.4769 C   0  0  0  0  0  0  0  0  0  0  0  0
   23.2582   -0.7958  -10.3696 O   0  0  0  0  0  0  0  0  0  0  0  0
   22.2413   -0.8419  -11.2939 C   0  0  2  0  0  0  0  0  0  0  0  0
   21.4746    0.4487  -11.4468 C   0  0  0  0  0  0  0  0  0  0  0  0
   20.2864    0.3012  -10.7323 O   0  0  0  0  0  0  0  0  0  0  0  0
   19.8608   -0.9939  -11.0162 C   0  0  0  0  0  0  0  0  0  0  0  0
   21.1412   -1.7867  -10.8516 C   0  0  1  0  0  0  0  0  0  0  0  0
   21.0404   -2.8812  -11.6951 F   0  0  0  0  0  0  0  0  0  0  0  0
   21.2846   -2.1824   -9.5490 F   0  0  0  0  0  0  0  0  0  0  0  0
   25.3158   -0.2545   -9.3070 C   0  0  0  0  0  0  0  0  0  0  0  0
  1  2  3  0
  2  3  1  0
  3  4  2  0
  4  5  1  0
  5  6  1  0
  5  7  2  0
  7  8  1  0
  8  9  1  0
 10  9  1  1
 10 11  1  0
 11 12  1  1
 13 12  1  6
 13 14  1  0
 14 15  1  6
 14 16  1  0
  8 17  2  0
 17  3  1  0
 14 10  1  0
M  END
$$$$
