_rank5
     RDKit          3D

 17 18  0  0  0  0  0  0  0  0999 V2000
   28.0340   -0.1428   -7.3945 N   0  0  0  0  0  0  0  0  0  0  0  0
   27.3461   -0.1360   -8.3352 C   0  0  0  0  0  0  0  0  0  0  0  0
   26.4832   -0.1158   -9.4847 C   0  0  0  0  0  0  0  0  0  0  0  0
   27.0389   -0.1699  -10.7286 C   0  0  0  0  0  0  0  0  0  0  0  0
   26.2643   -0.1541  -11.8664 C   0  0  0  0  0  0  0  0  0  0  0  0
   26.7758   -0.2060  -13.1147 F   0  0  0  0  0  0  0  0  0  0  0  0
   24.8828   -0.0810  -11.7326 C   0  0  0  0  0  0  0  0  0  0  0  0
   24.2897   -0.0251  -10.4959 C   0  0  0  0  0  0  0  0  0  0  0  0
   22.9511    0.0462  -10.3396 O   0  0  0  0  0  0  0  0  0  0  0  0
   21.9086   -0.2832  -11.1735 C   0  0  2  0  0  0  0  0  0  0  0  0
   20.5647    0.2446  -10.7353 C   0  0  0  0  0  0  0  0  0  0  0  0
   19.8884   -0.8171  -10.1356 O   0  0  0  0  0  0  0  0  0  0  0  0
   20.1610   -1.9147  -10.9479 C   0  0  0  0  0  0  0  0  0  0  0  0
   21.6536   -1.7777  -11.1678 C   0  0  1  0  0  0  0  0  0  0  0  0
   21.9257   -2.3453  -12.4020 F   0  0  0  0  0  0  0  0  0  0  0  0
   22.3364   -2.4205  -10.1706 F   0  0  0  0  0  0  0  0  0  0  0  0
   25.1142   -0.0435   -9.3555 C   0  0  0  0  0  0  0  0  0  0  0  0
  1  2  3  0
  2  3  1  0
  3  4  2  0
  4  5  1  0
  5  6  1  0
  5  7  2  0
  7  8  1  0
  8  9  1  0
 10  9  1  1
 10 11  1  0
 11 12  1  1
 13 12  1  6
 13 14  1  0
 14 15  1  6
 14 16  1  0
  8 17  2  0
 17  3  1  0
 14 10  1  0
M  END
$$$$
