_rank4
     RDKit          3D

 19 21  0  0  0  0  0  0  0  0999 V2000
   18.9382    2.3122   -9.5926 N   0  0  0  0  0  0  0  0  0  0  0  0
   19.7292    1.4981   -9.7706 C   0  0  0  0  0  0  0  0  0  0  0  0
   20.7262    0.4885  -10.0088 C   0  0  0  0  0  0  0  0  0  0  0  0
   20.3633   -0.6197  -10.7345 C   0  0  0  0  0  0  0  0  0  0  0  0
   21.3445   -1.5606  -10.9399 C   0  0  0  0  0  0  0  0  0  0  0  0
   21.0288   -2.6899  -11.6622 F   0  0  0  0  0  0  0  0  0  0  0  0
   22.6432   -1.4393  -10.4596 C   0  0  0  0  0  0  0  0  0  0  0  0
   23.0020   -0.3396   -9.7394 C   0  0  0  0  0  0  0  0  0  0  0  0
   24.2877   -0.1354   -9.2031 N   0  0  0  0  0  0  0  0  0  0  0  0
   25.4797    0.3371   -9.8553 C   0  0  2  0  0  0  0  0  0  0  0  0
   25.3397    1.7235  -10.3617 C   0  0  0  0  0  0  0  0  0  0  0  0
   26.4754    2.1392  -11.2739 C   0  0  0  0  0  0  0  0  0  0  0  0
   26.4175    1.2732  -12.4908 C   0  0  0  0  0  0  0  0  0  0  0  0
   26.6583   -0.1513  -12.0418 C   0  0  0  0  0  0  0  0  0  0  0  0
   25.6986   -0.6482  -11.0265 C   0  0  1  0  0  0  0  0  0  0  0  0
   26.2981   -1.8675  -10.3568 C   0  0  0  0  0  0  0  0  0  0  0  0
   26.6308   -1.4673   -8.9350 C   0  0  0  0  0  0  0  0  0  0  0  0
   26.7575    0.0579   -9.0977 C   0  0  0  0  0  0  0  0  0  0  0  0
   22.0084    0.6264   -9.5243 C   0  0  0  0  0  0  0  0  0  0  0  0
  1  2  3  0
  2  3  1  0
  3  4  2  0
  4  5  1  0
  5  6  1  0
  5  7  2  0
  7  8  1  0
  8  9  1  0
 10  9  1  1
 11 10  1  6
 12 11  1  6
 13 12  1  1
 14 13  1  6
 15 14  1  6
 16 15  1  6
 17 16  1  1
 18 17  1  6
  8 19  2  0
 19  3  1  0
 15 10  1  0
 18 10  1  0
M  END
$$$$
