_rank7
     RDKit          3D

 19 21  0  0  0  0  0  0  0  0999 V2000
   27.8926    1.5290   -6.8035 N   0  0  0  0  0  0  0  0  0  0  0  0
   27.3606    0.8875   -7.5943 C   0  0  0  0  0  0  0  0  0  0  0  0
   26.6895    0.0715   -8.5711 C   0  0  0  0  0  0  0  0  0  0  0  0
   27.3680   -1.0033   -9.0913 C   0  0  0  0  0  0  0  0  0  0  0  0
   26.6920   -1.7574  -10.0212 C   0  0  0  0  0  0  0  0  0  0  0  0
   27.3309   -2.8461  -10.5719 F   0  0  0  0  0  0  0  0  0  0  0  0
   25.3953   -1.4850  -10.4409 C   0  0  0  0  0  0  0  0  0  0  0  0
   24.7232   -0.4181   -9.9244 C   0  0  0  0  0  0  0  0  0  0  0  0
   23.4142   -0.0574  -10.2968 N   0  0  0  0  0  0  0  0  0  0  0  0
   22.1751   -0.7410  -10.0382 C   0  0  2  0  0  0  0  0  0  0  0  0
   22.3193   -2.2160  -10.0810 C   0  0  0  0  0  0  0  0  0  0  0  0
   20.9899   -2.9422  -10.0754 C   0  0  0  0  0  0  0  0  0  0  0  0
   20.2745   -2.5848  -11.3382 C   0  0  0  0  0  0  0  0  0  0  0  0
   20.0091   -1.0959  -11.2996 C   0  0  0  0  0  0  0  0  0  0  0  0
   21.2233   -0.2568  -11.1563 C   0  0  1  0  0  0  0  0  0  0  0  0
   20.8010    1.1214  -10.6903 C   0  0  0  0  0  0  0  0  0  0  0  0
   21.2913    1.2714   -9.2658 C   0  0  0  0  0  0  0  0  0  0  0  0
   21.4039   -0.2070   -8.8530 C   0  0  0  0  0  0  0  0  0  0  0  0
   25.4039    0.3576   -8.9748 C   0  0  0  0  0  0  0  0  0  0  0  0
  1  2  3  0
  2  3  1  0
  3  4  2  0
  4  5  1  0
  5  6  1  0
  5  7  2  0
  7  8  1  0
  8  9  1  0
 10  9  1  6
 11 10  1  6
 12 11  1  6
 13 12  1  1
 14 13  1  6
 15 14  1  1
 16 15  1  6
 17 16  1  1
 18 17  1  6
  8 19  2  0
 19  3  1  0
 15 10  1  0
 18 10  1  0
M  END
$$$$
