_rank18
     RDKit          3D

 19 21  0  0  0  0  0  0  0  0999 V2000
   28.4203    2.2693   -7.8162 N   0  0  0  0  0  0  0  0  0  0  0  0
   27.7387    1.4489   -8.2433 C   0  0  0  0  0  0  0  0  0  0  0  0
   26.8997    0.4089   -8.7769 C   0  0  0  0  0  0  0  0  0  0  0  0
   27.1502   -0.8852   -8.3913 C   0  0  0  0  0  0  0  0  0  0  0  0
   26.3263   -1.8489   -8.9232 C   0  0  0  0  0  0  0  0  0  0  0  0
   26.5381   -3.1621   -8.5663 F   0  0  0  0  0  0  0  0  0  0  0  0
   25.2869   -1.5753   -9.8045 C   0  0  0  0  0  0  0  0  0  0  0  0
   25.0395   -0.2910  -10.1867 C   0  0  0  0  0  0  0  0  0  0  0  0
   24.0188    0.0807  -11.0825 N   0  0  0  0  0  0  0  0  0  0  0  0
   22.6064   -0.1828  -11.0104 C   0  0  2  0  0  0  0  0  0  0  0  0
   22.0163    0.2287   -9.7139 C   0  0  0  0  0  0  0  0  0  0  0  0
   20.6019   -0.2773   -9.5190 C   0  0  0  0  0  0  0  0  0  0  0  0
   20.6597   -1.7699   -9.4635 C   0  0  0  0  0  0  0  0  0  0  0  0
   21.1616   -2.2515  -10.8069 C   0  0  0  0  0  0  0  0  0  0  0  0
   22.4861   -1.7125  -11.1995 C   0  0  1  0  0  0  0  0  0  0  0  0
   22.6560   -1.8996  -12.6931 C   0  0  0  0  0  0  0  0  0  0  0  0
   22.6088   -0.5203  -13.3156 C   0  0  0  0  0  0  0  0  0  0  0  0
   21.8287    0.2470  -12.2332 C   0  0  0  0  0  0  0  0  0  0  0  0
   25.8742    0.6997   -9.6496 C   0  0  0  0  0  0  0  0  0  0  0  0
  1  2  3  0
  2  3  1  0
  3  4  2  0
  4  5  1  0
  5  6  1  0
  5  7  2  0
  7  8  1  0
  8  9  1  0
 10  9  1  6
 11 10  1  6
 12 11  1  6
 13 12  1  1
 14 13  1  6
 15 14  1  6
 16 15  1  6
 17 16  1  1
 18 17  1  6
  8 19  2  0
 19  3  1  0
 15 10  1  0
 18 10  1  0
M  END
$$$$
