_rank13
     RDKit          3D

 19 21  0  0  0  0  0  0  0  0999 V2000
   17.7996    2.0138   -9.8993 N   0  0  0  0  0  0  0  0  0  0  0  0
   18.7564    1.5062   -9.5160 C   0  0  0  0  0  0  0  0  0  0  0  0
   19.9444    0.8548   -9.0315 C   0  0  0  0  0  0  0  0  0  0  0  0
   19.8561    0.1327   -7.8666 C   0  0  0  0  0  0  0  0  0  0  0  0
   21.0130   -0.4741   -7.4377 C   0  0  0  0  0  0  0  0  0  0  0  0
   20.9747   -1.2097   -6.2741 F   0  0  0  0  0  0  0  0  0  0  0  0
   22.2253   -0.3888   -8.1122 C   0  0  0  0  0  0  0  0  0  0  0  0
   22.3118    0.3282   -9.2676 C   0  0  0  0  0  0  0  0  0  0  0  0
   23.4971    0.4811  -10.0121 N   0  0  0  0  0  0  0  0  0  0  0  0
   24.4024   -0.5268  -10.4958 C   0  0  2  0  0  0  0  0  0  0  0  0
   25.6837   -0.5460   -9.7500 C   0  0  0  0  0  0  0  0  0  0  0  0
   26.7399   -1.4097  -10.4081 C   0  0  0  0  0  0  0  0  0  0  0  0
   27.0685   -0.7933  -11.7296 C   0  0  0  0  0  0  0  0  0  0  0  0
   25.8139   -0.8416  -12.5736 C   0  0  0  0  0  0  0  0  0  0  0  0
   24.6429   -0.1547  -11.9770 C   0  0  1  0  0  0  0  0  0  0  0  0
   23.3917   -0.6479  -12.6743 C   0  0  0  0  0  0  0  0  0  0  0  0
   22.6273   -1.4794  -11.6661 C   0  0  0  0  0  0  0  0  0  0  0  0
   23.7683   -1.8814  -10.7146 C   0  0  0  0  0  0  0  0  0  0  0  0
   21.1372    0.9510   -9.7139 C   0  0  0  0  0  0  0  0  0  0  0  0
  1  2  3  0
  2  3  1  0
  3  4  2  0
  4  5  1  0
  5  6  1  0
  5  7  2  0
  7  8  1  0
  8  9  1  0
 10  9  1  1
 11 10  1  6
 12 11  1  6
 13 12  1  1
 14 13  1  6
 15 14  1  6
 16 15  1  6
 17 16  1  1
 18 17  1  6
  8 19  2  0
 19  3  1  0
 15 10  1  0
 18 10  1  0
M  END
$$$$
