_rank12
     RDKit          3D

 19 21  0  0  0  0  0  0  0  0999 V2000
   26.6535    0.4234   -6.8130 N   0  0  0  0  0  0  0  0  0  0  0  0
   26.4316    0.1545   -7.9077 C   0  0  0  0  0  0  0  0  0  0  0  0
   26.1472   -0.1643   -9.2816 C   0  0  0  0  0  0  0  0  0  0  0  0
   27.1666   -0.6666  -10.0529 C   0  0  0  0  0  0  0  0  0  0  0  0
   26.8539   -0.9584  -11.3596 C   0  0  0  0  0  0  0  0  0  0  0  0
   27.8433   -1.4646  -12.1730 F   0  0  0  0  0  0  0  0  0  0  0  0
   25.5920   -0.7719  -11.9116 C   0  0  0  0  0  0  0  0  0  0  0  0
   24.5815   -0.2731  -11.1456 C   0  0  0  0  0  0  0  0  0  0  0  0
   23.2765   -0.0391  -11.6197 N   0  0  0  0  0  0  0  0  0  0  0  0
   22.0175   -0.2517  -10.9571 C   0  0  2  0  0  0  0  0  0  0  0  0
   21.7459    0.7642   -9.9119 C   0  0  0  0  0  0  0  0  0  0  0  0
   20.5654    0.4085   -9.0317 C   0  0  0  0  0  0  0  0  0  0  0  0
   20.9193   -0.8353   -8.2821 C   0  0  0  0  0  0  0  0  0  0  0  0
   21.1081   -1.9372   -9.3014 C   0  0  0  0  0  0  0  0  0  0  0  0
   22.1425   -1.6579  -10.3266 C   0  0  1  0  0  0  0  0  0  0  0  0
   21.9208   -2.5926  -11.4979 C   0  0  0  0  0  0  0  0  0  0  0  0
   21.4402   -1.7406  -12.6535 C   0  0  0  0  0  0  0  0  0  0  0  0
   20.8622   -0.5360  -11.8895 C   0  0  0  0  0  0  0  0  0  0  0  0
   24.8900    0.0277   -9.8110 C   0  0  0  0  0  0  0  0  0  0  0  0
  1  2  3  0
  2  3  1  0
  3  4  2  0
  4  5  1  0
  5  6  1  0
  5  7  2  0
  7  8  1  0
  8  9  1  0
 10  9  1  6
 11 10  1  6
 12 11  1  6
 13 12  1  1
 14 13  1  6
 15 14  1  1
 16 15  1  6
 17 16  1  1
 18 17  1  6
  8 19  2  0
 19  3  1  0
 15 10  1  0
 18 10  1  0
M  END
$$$$
