_rank17
     RDKit          3D

 19 21  0  0  0  0  0  0  0  0999 V2000
   28.0308    2.4494   -6.9860 N   0  0  0  0  0  0  0  0  0  0  0  0
   27.5962    1.4932   -7.4516 C   0  0  0  0  0  0  0  0  0  0  0  0
   27.0698    0.2891   -8.0376 C   0  0  0  0  0  0  0  0  0  0  0  0
   27.8817   -0.8178   -8.0796 C   0  0  0  0  0  0  0  0  0  0  0  0
   27.3414   -1.9475   -8.6471 C   0  0  0  0  0  0  0  0  0  0  0  0
   28.1173   -3.0835   -8.7122 F   0  0  0  0  0  0  0  0  0  0  0  0
   26.0519   -2.0118   -9.1619 C   0  0  0  0  0  0  0  0  0  0  0  0
   25.2473   -0.9129   -9.1201 C   0  0  0  0  0  0  0  0  0  0  0  0
   23.9340   -0.8794   -9.6264 N   0  0  0  0  0  0  0  0  0  0  0  0
   23.4829   -0.9763  -10.9889 C   0  0  2  0  0  0  0  0  0  0  0  0
   24.5965   -0.8936  -11.9643 C   0  0  0  0  0  0  0  0  0  0  0  0
   24.1222   -0.7278  -13.3933 C   0  0  0  0  0  0  0  0  0  0  0  0
   23.4242    0.5906  -13.4876 C   0  0  0  0  0  0  0  0  0  0  0  0
   22.2129    0.5247  -12.5836 C   0  0  0  0  0  0  0  0  0  0  0  0
   22.5183    0.2191  -11.1651 C   0  0  1  0  0  0  0  0  0  0  0  0
   21.2453   -0.2502  -10.4913 C   0  0  0  0  0  0  0  0  0  0  0  0
   21.4242   -1.7242  -10.1949 C   0  0  0  0  0  0  0  0  0  0  0  0
   22.4928   -2.0905  -11.2403 C   0  0  0  0  0  0  0  0  0  0  0  0
   25.7890    0.2449   -8.5429 C   0  0  0  0  0  0  0  0  0  0  0  0
  1  2  3  0
  2  3  1  0
  3  4  2  0
  4  5  1  0
  5  6  1  0
  5  7  2  0
  7  8  1  0
  8  9  1  0
 10  9  1  1
 11 10  1  6
 12 11  1  6
 13 12  1  1
 14 13  1  6
 15 14  1  6
 16 15  1  6
 17 16  1  1
 18 17  1  6
  8 19  2  0
 19  3  1  0
 15 10  1  0
 18 10  1  0
M  END
$$$$
