_rank14
     RDKit          3D

 19 21  0  0  0  0  0  0  0  0999 V2000
   29.5333   -0.4932   -9.9983 N   0  0  0  0  0  0  0  0  0  0  0  0
   28.4236   -0.4391   -9.7056 C   0  0  0  0  0  0  0  0  0  0  0  0
   27.0295   -0.3663   -9.3570 C   0  0  0  0  0  0  0  0  0  0  0  0
   26.7029   -0.0336   -8.0652 C   0  0  0  0  0  0  0  0  0  0  0  0
   25.3607    0.0253   -7.7729 C   0  0  0  0  0  0  0  0  0  0  0  0
   24.9830    0.3551   -6.4902 F   0  0  0  0  0  0  0  0  0  0  0  0
   24.3568   -0.2295   -8.6999 C   0  0  0  0  0  0  0  0  0  0  0  0
   24.6820   -0.5599   -9.9811 C   0  0  0  0  0  0  0  0  0  0  0  0
   23.7364   -0.8464  -10.9842 N   0  0  0  0  0  0  0  0  0  0  0  0
   22.3280   -0.5552  -11.0148 C   0  0  2  0  0  0  0  0  0  0  0  0
   21.8123   -0.1005   -9.7011 C   0  0  0  0  0  0  0  0  0  0  0  0
   20.2995   -0.0449   -9.6449 C   0  0  0  0  0  0  0  0  0  0  0  0
   19.7901   -1.4415   -9.8002 C   0  0  0  0  0  0  0  0  0  0  0  0
   20.2027   -1.9214  -11.1744 C   0  0  0  0  0  0  0  0  0  0  0  0
   21.6638   -1.8896  -11.4253 C   0  0  1  0  0  0  0  0  0  0  0  0
   21.8946   -1.9552  -12.9210 C   0  0  0  0  0  0  0  0  0  0  0  0
   22.4263   -0.6015  -13.3420 C   0  0  0  0  0  0  0  0  0  0  0  0
   21.8887    0.2766  -12.1980 C   0  0  0  0  0  0  0  0  0  0  0  0
   26.0487   -0.6225  -10.2898 C   0  0  0  0  0  0  0  0  0  0  0  0
  1  2  3  0
  2  3  1  0
  3  4  2  0
  4  5  1  0
  5  6  1  0
  5  7  2  0
  7  8  1  0
  8  9  1  0
 10  9  1  1
 11 10  1  6
 12 11  1  6
 13 12  1  1
 14 13  1  6
 15 14  1  6
 16 15  1  6
 17 16  1  1
 18 17  1  6
  8 19  2  0
 19  3  1  0
 15 10  1  0
 18 10  1  0
M  END
$$$$
