_rank20
     RDKit          3D

 19 21  0  0  0  0  0  0  0  0999 V2000
   29.2111    0.2736   -8.1063 N   0  0  0  0  0  0  0  0  0  0  0  0
   28.0688    0.1510   -8.1172 C   0  0  0  0  0  0  0  0  0  0  0  0
   26.6369    0.0122   -8.1430 C   0  0  0  0  0  0  0  0  0  0  0  0
   25.9196    0.5155   -7.0855 C   0  0  0  0  0  0  0  0  0  0  0  0
   24.5546    0.3628   -7.1485 C   0  0  0  0  0  0  0  0  0  0  0  0
   23.7919    0.8514   -6.1111 F   0  0  0  0  0  0  0  0  0  0  0  0
   23.8952   -0.2587   -8.2024 C   0  0  0  0  0  0  0  0  0  0  0  0
   24.6079   -0.7580   -9.2509 C   0  0  0  0  0  0  0  0  0  0  0  0
   24.0294   -1.4131  -10.3548 N   0  0  0  0  0  0  0  0  0  0  0  0
   24.2844   -1.2261  -11.7582 C   0  0  2  0  0  0  0  0  0  0  0  0
   25.7200   -1.3701  -12.0998 C   0  0  0  0  0  0  0  0  0  0  0  0
   26.0421   -0.9196  -13.5097 C   0  0  0  0  0  0  0  0  0  0  0  0
   25.7691    0.5478  -13.5886 C   0  0  0  0  0  0  0  0  0  0  0  0
   24.2886    0.7442  -13.3477 C   0  0  0  0  0  0  0  0  0  0  0  0
   23.7987    0.2117  -12.0534 C   0  0  1  0  0  0  0  0  0  0  0  0
   22.2928    0.0679  -12.1336 C   0  0  0  0  0  0  0  0  0  0  0  0
   21.9944   -1.4164  -12.1422 C   0  0  0  0  0  0  0  0  0  0  0  0
   23.3319   -1.9662  -12.6691 C   0  0  0  0  0  0  0  0  0  0  0  0
   26.0011   -0.6072   -9.1965 C   0  0  0  0  0  0  0  0  0  0  0  0
  1  2  3  0
  2  3  1  0
  3  4  2  0
  4  5  1  0
  5  6  1  0
  5  7  2  0
  7  8  1  0
  8  9  1  0
 10  9  1  1
 11 10  1  6
 12 11  1  6
 13 12  1  1
 14 13  1  6
 15 14  1  6
 16 15  1  6
 17 16  1  1
 18 17  1  6
  8 19  2  0
 19  3  1  0
 15 10  1  0
 18 10  1  0
M  END
$$$$
