_rank6
     RDKit          3D

 19 21  0  0  0  0  0  0  0  0999 V2000
   19.4886   -3.1750   -9.1995 N   0  0  0  0  0  0  0  0  0  0  0  0
   20.1965   -2.3526   -9.5771 C   0  0  0  0  0  0  0  0  0  0  0  0
   21.0844   -1.3319  -10.0669 C   0  0  0  0  0  0  0  0  0  0  0  0
   20.6185   -0.0410  -10.1201 C   0  0  0  0  0  0  0  0  0  0  0  0
   21.4975    0.9041  -10.5938 C   0  0  0  0  0  0  0  0  0  0  0  0
   21.0762    2.2133  -10.6660 F   0  0  0  0  0  0  0  0  0  0  0  0
   22.7931    0.6155  -11.0063 C   0  0  0  0  0  0  0  0  0  0  0  0
   23.2542   -0.6656  -10.9534 C   0  0  0  0  0  0  0  0  0  0  0  0
   24.5447   -1.0549  -11.3602 N   0  0  0  0  0  0  0  0  0  0  0  0
   25.8209   -0.6879  -10.8071 C   0  0  2  0  0  0  0  0  0  0  0  0
   26.5679   -1.8538  -10.2772 C   0  0  0  0  0  0  0  0  0  0  0  0
   27.7815   -1.4594   -9.4609 C   0  0  0  0  0  0  0  0  0  0  0  0
   27.2944   -0.7277   -8.2519 C   0  0  0  0  0  0  0  0  0  0  0  0
   26.6089    0.5320   -8.7335 C   0  0  0  0  0  0  0  0  0  0  0  0
   25.4813    0.3012   -9.6684 C   0  0  1  0  0  0  0  0  0  0  0  0
   25.1914    1.5965  -10.3984 C   0  0  0  0  0  0  0  0  0  0  0  0
   25.6076    1.3898  -11.8394 C   0  0  0  0  0  0  0  0  0  0  0  0
   26.6293    0.2508  -11.6733 C   0  0  0  0  0  0  0  0  0  0  0  0
   22.3653   -1.6374  -10.4715 C   0  0  0  0  0  0  0  0  0  0  0  0
  1  2  3  0
  2  3  1  0
  3  4  2  0
  4  5  1  0
  5  6  1  0
  5  7  2  0
  7  8  1  0
  8  9  1  0
 10  9  1  6
 11 10  1  6
 12 11  1  6
 13 12  1  1
 14 13  1  6
 15 14  1  1
 16 15  1  6
 17 16  1  1
 18 17  1  6
  8 19  2  0
 19  3  1  0
 15 10  1  0
 18 10  1  0
M  END
$$$$
