_rank10
     RDKit          3D

 19 21  0  0  0  0  0  0  0  0999 V2000
   28.0163    1.7114   -7.4471 N   0  0  0  0  0  0  0  0  0  0  0  0
   27.4279    1.0469   -8.1767 C   0  0  0  0  0  0  0  0  0  0  0  0
   26.6792    0.2097   -9.0760 C   0  0  0  0  0  0  0  0  0  0  0  0
   27.3077   -0.2460  -10.2089 C   0  0  0  0  0  0  0  0  0  0  0  0
   26.5581   -1.0428  -11.0418 C   0  0  0  0  0  0  0  0  0  0  0  0
   27.1447   -1.5245  -12.1910 F   0  0  0  0  0  0  0  0  0  0  0  0
   25.2365   -1.3931  -10.7917 C   0  0  0  0  0  0  0  0  0  0  0  0
   24.6138   -0.9400   -9.6675 C   0  0  0  0  0  0  0  0  0  0  0  0
   23.2767   -1.2317   -9.3368 N   0  0  0  0  0  0  0  0  0  0  0  0
   22.0877   -1.0647  -10.1291 C   0  0  2  0  0  0  0  0  0  0  0  0
   21.4846   -2.3586  -10.5299 C   0  0  0  0  0  0  0  0  0  0  0  0
   20.3974   -2.2080  -11.5739 C   0  0  0  0  0  0  0  0  0  0  0  0
   21.0348   -1.6748  -12.8163 C   0  0  0  0  0  0  0  0  0  0  0  0
   21.5806   -0.3022  -12.4892 C   0  0  0  0  0  0  0  0  0  0  0  0
   22.5573   -0.2770  -11.3738 C   0  0  1  0  0  0  0  0  0  0  0  0
   22.6723    1.1469  -10.8697 C   0  0  0  0  0  0  0  0  0  0  0  0
   22.0455    1.1758   -9.4918 C   0  0  0  0  0  0  0  0  0  0  0  0
   21.1134   -0.0455   -9.5845 C   0  0  0  0  0  0  0  0  0  0  0  0
   25.3698   -0.1266   -8.8111 C   0  0  0  0  0  0  0  0  0  0  0  0
  1  2  3  0
  2  3  1  0
  3  4  2  0
  4  5  1  0
  5  6  1  0
  5  7  2  0
  7  8  1  0
  8  9  1  0
 10  9  1  1
 11 10  1  6
 12 11  1  6
 13 12  1  1
 14 13  1  6
 15 14  1  6
 16 15  1  6
 17 16  1  1
 18 17  1  6
  8 19  2  0
 19  3  1  0
 15 10  1  0
 18 10  1  0
M  END
$$$$
