_rank9
     RDKit          3D

 19 21  0  0  0  0  0  0  0  0999 V2000
   28.0317   -0.6086   -7.3955 N   0  0  0  0  0  0  0  0  0  0  0  0
   27.3560   -0.4409   -8.3095 C   0  0  0  0  0  0  0  0  0  0  0  0
   26.5130   -0.2490   -9.4596 C   0  0  0  0  0  0  0  0  0  0  0  0
   27.0926   -0.3101  -10.7031 C   0  0  0  0  0  0  0  0  0  0  0  0
   26.2532   -0.1216  -11.7756 C   0  0  0  0  0  0  0  0  0  0  0  0
   26.7880   -0.1737  -13.0437 F   0  0  0  0  0  0  0  0  0  0  0  0
   24.8896    0.1197  -11.6556 C   0  0  0  0  0  0  0  0  0  0  0  0
   24.3157    0.1804  -10.4213 C   0  0  0  0  0  0  0  0  0  0  0  0
   22.9479    0.4314  -10.2010 N   0  0  0  0  0  0  0  0  0  0  0  0
   21.8489   -0.4960  -10.1614 C   0  0  2  0  0  0  0  0  0  0  0  0
   22.2074   -1.7752   -9.5030 C   0  0  0  0  0  0  0  0  0  0  0  0
   21.1568   -2.8511   -9.6860 C   0  0  0  0  0  0  0  0  0  0  0  0
   21.0868   -3.1708  -11.1445 C   0  0  0  0  0  0  0  0  0  0  0  0
   20.6233   -1.9200  -11.8581 C   0  0  0  0  0  0  0  0  0  0  0  0
   21.4866   -0.7332  -11.6455 C   0  0  1  0  0  0  0  0  0  0  0  0
   20.6992    0.5054  -12.0207 C   0  0  0  0  0  0  0  0  0  0  0  0
   20.4236    1.2554  -10.7347 C   0  0  0  0  0  0  0  0  0  0  0  0
   20.5380    0.1092   -9.7140 C   0  0  0  0  0  0  0  0  0  0  0  0
   25.1633   -0.0107   -9.3205 C   0  0  0  0  0  0  0  0  0  0  0  0
  1  2  3  0
  2  3  1  0
  3  4  2  0
  4  5  1  0
  5  6  1  0
  5  7  2  0
  7  8  1  0
  8  9  1  0
 10  9  1  6
 11 10  1  6
 12 11  1  6
 13 12  1  1
 14 13  1  6
 15 14  1  1
 16 15  1  6
 17 16  1  1
 18 17  1  6
  8 19  2  0
 19  3  1  0
 15 10  1  0
 18 10  1  0
M  END
$$$$
