_rank19
     RDKit          3D

 19 21  0  0  0  0  0  0  0  0999 V2000
   29.5592   -1.3930   -8.6806 N   0  0  0  0  0  0  0  0  0  0  0  0
   28.4947   -0.9682   -8.6009 C   0  0  0  0  0  0  0  0  0  0  0  0
   27.1601   -0.4367   -8.5202 C   0  0  0  0  0  0  0  0  0  0  0  0
   26.6260   -0.2174   -7.2741 C   0  0  0  0  0  0  0  0  0  0  0  0
   25.3490    0.2911   -7.2403 C   0  0  0  0  0  0  0  0  0  0  0  0
   24.7701    0.5281   -6.0134 F   0  0  0  0  0  0  0  0  0  0  0  0
   24.6034    0.5816   -8.3768 C   0  0  0  0  0  0  0  0  0  0  0  0
   25.1342    0.3633   -9.6126 C   0  0  0  0  0  0  0  0  0  0  0  0
   24.4515    0.6153  -10.8180 N   0  0  0  0  0  0  0  0  0  0  0  0
   23.2615   -0.0059  -11.3351 C   0  0  2  0  0  0  0  0  0  0  0  0
   22.1396    0.0190  -10.3661 C   0  0  0  0  0  0  0  0  0  0  0  0
   20.9749   -0.8545  -10.7848 C   0  0  0  0  0  0  0  0  0  0  0  0
   21.4519   -2.2710  -10.7909 C   0  0  0  0  0  0  0  0  0  0  0  0
   22.5346   -2.3772  -11.8422 C   0  0  0  0  0  0  0  0  0  0  0  0
   23.6834   -1.4620  -11.6385 C   0  0  1  0  0  0  0  0  0  0  0  0
   24.4416   -1.3467  -12.9449 C   0  0  0  0  0  0  0  0  0  0  0  0
   24.2177    0.0599  -13.4585 C   0  0  0  0  0  0  0  0  0  0  0  0
   22.9014    0.4114  -12.7426 C   0  0  0  0  0  0  0  0  0  0  0  0
   26.4365   -0.1551   -9.6581 C   0  0  0  0  0  0  0  0  0  0  0  0
  1  2  3  0
  2  3  1  0
  3  4  2  0
  4  5  1  0
  5  6  1  0
  5  7  2  0
  7  8  1  0
  8  9  1  0
 10  9  1  1
 11 10  1  6
 12 11  1  6
 13 12  1  1
 14 13  1  6
 15 14  1  6
 16 15  1  6
 17 16  1  1
 18 17  1  6
  8 19  2  0
 19  3  1  0
 15 10  1  0
 18 10  1  0
M  END
$$$$
