_rank1
     RDKit          3D

 19 21  0  0  0  0  0  0  0  0999 V2000
   18.4980    1.8471   -8.9161 N   0  0  0  0  0  0  0  0  0  0  0  0
   19.3329    1.1844   -9.3450 C   0  0  0  0  0  0  0  0  0  0  0  0
   20.3670    0.3393   -9.8802 C   0  0  0  0  0  0  0  0  0  0  0  0
   20.0178   -0.9192  -10.3051 C   0  0  0  0  0  0  0  0  0  0  0  0
   21.0347   -1.6950  -10.8097 C   0  0  0  0  0  0  0  0  0  0  0  0
   20.7339   -2.9652  -11.2488 F   0  0  0  0  0  0  0  0  0  0  0  0
   22.3551   -1.2714  -10.9036 C   0  0  0  0  0  0  0  0  0  0  0  0
   22.7005   -0.0228  -10.4813 C   0  0  0  0  0  0  0  0  0  0  0  0
   24.0117    0.4883  -10.5258 N   0  0  0  0  0  0  0  0  0  0  0  0
   25.2610   -0.1968  -10.3275 C   0  0  2  0  0  0  0  0  0  0  0  0
   25.2826   -0.9897   -9.0748 C   0  0  0  0  0  0  0  0  0  0  0  0
   26.6644   -1.4978   -8.7183 C   0  0  0  0  0  0  0  0  0  0  0  0
   27.5253   -0.3080   -8.4401 C   0  0  0  0  0  0  0  0  0  0  0  0
   27.6220    0.4880   -9.7230 C   0  0  0  0  0  0  0  0  0  0  0  0
   26.3182    0.9300  -10.2739 C   0  0  1  0  0  0  0  0  0  0  0  0
   26.5143    1.3019  -11.7292 C   0  0  0  0  0  0  0  0  0  0  0  0
   25.7955    0.2523  -12.5502 C   0  0  0  0  0  0  0  0  0  0  0  0
   25.7776   -0.9184  -11.5511 C   0  0  0  0  0  0  0  0  0  0  0  0
   21.6705    0.7768   -9.9650 C   0  0  0  0  0  0  0  0  0  0  0  0
  1  2  3  0
  2  3  1  0
  3  4  2  0
  4  5  1  0
  5  6  1  0
  5  7  2  0
  7  8  1  0
  8  9  1  0
 10  9  1  6
 11 10  1  6
 12 11  1  6
 13 12  1  1
 14 13  1  6
 15 14  1  6
 16 15  1  6
 17 16  1  1
 18 17  1  6
  8 19  2  0
 19  3  1  0
 15 10  1  0
 18 10  1  0
M  END
$$$$
