_rank8
     RDKit          3D

 19 21  0  0  0  0  0  0  0  0999 V2000
   18.2424    1.7304  -10.2479 N   0  0  0  0  0  0  0  0  0  0  0  0
   19.2133    1.2747   -9.8358 C   0  0  0  0  0  0  0  0  0  0  0  0
   20.4193    0.6971   -9.3047 C   0  0  0  0  0  0  0  0  0  0  0  0
   20.3352   -0.0075   -8.1289 C   0  0  0  0  0  0  0  0  0  0  0  0
   21.5095   -0.5433   -7.6552 C   0  0  0  0  0  0  0  0  0  0  0  0
   21.4760   -1.2588   -6.4789 F   0  0  0  0  0  0  0  0  0  0  0  0
   22.7350   -0.4050   -8.2963 C   0  0  0  0  0  0  0  0  0  0  0  0
   22.8174    0.2946   -9.4626 C   0  0  0  0  0  0  0  0  0  0  0  0
   24.0144    0.4975  -10.1756 N   0  0  0  0  0  0  0  0  0  0  0  0
   25.2493   -0.2370  -10.1056 C   0  0  2  0  0  0  0  0  0  0  0  0
   25.6407   -0.5606   -8.7126 C   0  0  0  0  0  0  0  0  0  0  0  0
   27.0542   -1.0940   -8.6025 C   0  0  0  0  0  0  0  0  0  0  0  0
   27.9835   -0.0016   -9.0236 C   0  0  0  0  0  0  0  0  0  0  0  0
   27.6952    0.2993  -10.4779 C   0  0  0  0  0  0  0  0  0  0  0  0
   26.2944    0.6960  -10.7594 C   0  0  1  0  0  0  0  0  0  0  0  0
   26.0385    0.5305  -12.2433 C   0  0  0  0  0  0  0  0  0  0  0  0
   25.0794   -0.6311  -12.3955 C   0  0  0  0  0  0  0  0  0  0  0  0
   25.3470   -1.3870  -11.0817 C   0  0  0  0  0  0  0  0  0  0  0  0
   21.6250    0.8451   -9.9545 C   0  0  0  0  0  0  0  0  0  0  0  0
  1  2  3  0
  2  3  1  0
  3  4  2  0
  4  5  1  0
  5  6  1  0
  5  7  2  0
  7  8  1  0
  8  9  1  0
 10  9  1  1
 11 10  1  6
 12 11  1  6
 13 12  1  1
 14 13  1  6
 15 14  1  6
 16 15  1  6
 17 16  1  1
 18 17  1  6
  8 19  2  0
 19  3  1  0
 15 10  1  0
 18 10  1  0
M  END
$$$$
