_rank5
     RDKit          3D

 25 27  0  0  0  0  0  0  0  0999 V2000
   27.7503   -1.8539   -7.9515 C   0  0  0  0  0  0  0  0  0  0  0  0
   27.6648   -0.2611   -8.7823 S   0  0  2  0  0  6  0  0  0  0  0  0
   28.9227   -0.0864   -9.5371 O   0  0  0  0  0  0  0  0  0  0  0  0
   27.6283    0.8348   -7.7289 O   0  0  0  0  0  0  0  0  0  0  0  0
   26.2294   -0.2538   -9.7353 C   0  0  0  0  0  0  0  0  0  0  0  0
   25.0350   -0.6119   -9.1502 C   0  0  0  0  0  0  0  0  0  0  0  0
   23.8766   -0.6086   -9.9093 C   0  0  0  0  0  0  0  0  0  0  0  0
   23.9458   -0.2471  -11.2328 C   0  0  0  0  0  0  0  0  0  0  0  0
   22.7894   -0.2428  -11.9944 O   0  0  0  0  0  0  0  0  0  0  0  0
   21.5601   -0.4772  -11.4178 C   0  0  0  0  0  0  0  0  0  0  0  0
   20.9524   -1.7194  -11.4675 C   0  0  0  0  0  0  0  0  0  0  0  0
   19.7209   -1.9455  -10.8873 C   0  0  0  0  0  0  0  0  0  0  0  0
   19.1664   -3.1712  -10.9601 F   0  0  0  0  0  0  0  0  0  0  0  0
   19.0760   -0.9234  -10.2444 C   0  0  0  0  0  0  0  0  0  0  0  0
   19.6643    0.3367  -10.1791 C   0  0  0  0  0  0  0  0  0  0  0  0
   18.9315    1.3563   -9.4909 C   0  0  0  0  0  0  0  0  0  0  0  0
   18.3309    2.1812   -8.9094 N   0  0  0  0  0  0  0  0  0  0  0  0
   20.8889    0.5378  -10.7632 C   0  0  0  0  0  0  0  0  0  0  0  0
   25.1708    0.1199  -11.8321 C   0  0  0  0  0  0  0  0  0  0  0  0
   26.3040    0.1135  -11.0770 C   0  0  0  0  0  0  0  0  0  0  0  0
   27.4704    0.5163  -11.8519 C   0  0  2  0  0  0  0  0  0  0  0  0
   28.2015    1.5516  -11.2452 O   0  0  0  0  0  0  0  0  0  0  0  0
   26.8553    1.1555  -13.1005 C   0  0  0  0  0  0  0  0  0  0  0  0
   25.5004    0.5390  -13.2100 C   0  0  2  0  0  0  0  0  0  0  0  0
   24.5524    1.3779  -13.7494 F   0  0  0  0  0  0  0  0  0  0  0  0
  1  2  1  1
  2  3  2  0
  2  4  2  0
  2  5  1  6
  5  6  2  0
  6  7  1  0
  7  8  2  0
  8  9  1  0
  9 10  1  0
 10 11  2  0
 11 12  1  0
 12 13  1  0
 12 14  2  0
 14 15  1  0
 15 16  1  0
 16 17  3  0
 15 18  2  0
  8 19  1  0
 19 20  2  0
 20 21  1  0
 21 22  1  1
 23 21  1  1
 23 24  1  0
 24 25  1  1
 20  5  1  0
 18 10  1  0
 24 19  1  0
M  END
$$$$
