_rank10
     RDKit          3D

 25 27  0  0  0  0  0  0  0  0999 V2000
   27.8184    0.7146   -7.6568 C   0  0  0  0  0  0  0  0  0  0  0  0
   27.5287   -0.8339   -8.5243 S   0  0  2  0  0  6  0  0  0  0  0  0
   27.4947   -1.9097   -7.5123 O   0  0  0  0  0  0  0  0  0  0  0  0
   28.7204   -1.1158   -9.4257 O   0  0  0  0  0  0  0  0  0  0  0  0
   26.0848   -0.6460   -9.4453 C   0  0  0  0  0  0  0  0  0  0  0  0
   24.8788   -0.9953   -8.8790 C   0  0  0  0  0  0  0  0  0  0  0  0
   23.7134   -0.8472   -9.6127 C   0  0  0  0  0  0  0  0  0  0  0  0
   23.7875   -0.3539  -10.8925 C   0  0  0  0  0  0  0  0  0  0  0  0
   22.6242   -0.2047  -11.6286 O   0  0  0  0  0  0  0  0  0  0  0  0
   21.3883   -0.3697  -11.0421 C   0  0  0  0  0  0  0  0  0  0  0  0
   20.7464    0.6637  -10.3826 C   0  0  0  0  0  0  0  0  0  0  0  0
   19.5085    0.4896   -9.7979 C   0  0  0  0  0  0  0  0  0  0  0  0
   18.9203    1.5239   -9.1658 F   0  0  0  0  0  0  0  0  0  0  0  0
   18.8917   -0.7305   -9.8658 C   0  0  0  0  0  0  0  0  0  0  0  0
   19.5147   -1.7879  -10.5232 C   0  0  0  0  0  0  0  0  0  0  0  0
   18.8100   -3.0339  -10.5537 C   0  0  0  0  0  0  0  0  0  0  0  0
   18.2162   -4.0466  -10.5879 N   0  0  0  0  0  0  0  0  0  0  0  0
   20.7449   -1.5913  -11.0968 C   0  0  0  0  0  0  0  0  0  0  0  0
   25.0244    0.0040  -11.4726 C   0  0  0  0  0  0  0  0  0  0  0  0
   26.1644   -0.1453  -10.7428 C   0  0  0  0  0  0  0  0  0  0  0  0
   27.3427    0.2698  -11.4927 C   0  0  2  0  0  0  0  0  0  0  0  0
   28.1400    1.1931  -10.7953 O   0  0  0  0  0  0  0  0  0  0  0  0
   26.7508    1.0697  -12.6571 C   0  0  0  0  0  0  0  0  0  0  0  0
   25.3611    0.5455  -12.8054 C   0  0  2  0  0  0  0  0  0  0  0  0
   24.4569    1.4883  -13.2377 F   0  0  0  0  0  0  0  0  0  0  0  0
  1  2  1  1
  2  3  2  0
  2  4  2  0
  2  5  1  6
  5  6  2  0
  6  7  1  0
  7  8  2  0
  8  9  1  0
  9 10  1  0
 10 11  2  0
 11 12  1  0
 12 13  1  0
 12 14  2  0
 14 15  1  0
 15 16  1  0
 16 17  3  0
 15 18  2  0
  8 19  1  0
 19 20  2  0
 20 21  1  0
 21 22  1  1
 23 21  1  1
 23 24  1  0
 24 25  1  1
 20  5  1  0
 18 10  1  0
 24 19  1  0
M  END
$$$$
