_rank15
     RDKit          3D

 25 27  0  0  0  0  0  0  0  0999 V2000
   27.2772   -0.6437   -7.0577 C   0  0  0  0  0  0  0  0  0  0  0  0
   27.6939   -0.1893   -8.7472 S   0  0  2  0  0  6  0  0  0  0  0  0
   28.8127   -1.0534   -9.1760 O   0  0  0  0  0  0  0  0  0  0  0  0
   28.2150    1.2392   -8.7513 O   0  0  0  0  0  0  0  0  0  0  0  0
   26.2567   -0.3281   -9.6872 C   0  0  0  0  0  0  0  0  0  0  0  0
   25.0963   -0.7522   -9.0783 C   0  0  0  0  0  0  0  0  0  0  0  0
   23.9366   -0.8664   -9.8269 C   0  0  0  0  0  0  0  0  0  0  0  0
   23.9706   -0.5532  -11.1639 C   0  0  0  0  0  0  0  0  0  0  0  0
   22.8129   -0.6664  -11.9151 O   0  0  0  0  0  0  0  0  0  0  0  0
   21.5761   -0.7078  -11.3091 C   0  0  0  0  0  0  0  0  0  0  0  0
   21.1693    0.2597  -10.4073 C   0  0  0  0  0  0  0  0  0  0  0  0
   19.9287    0.2105   -9.8049 C   0  0  0  0  0  0  0  0  0  0  0  0
   19.5742    1.1743   -8.9326 F   0  0  0  0  0  0  0  0  0  0  0  0
   19.0719   -0.8157  -10.0992 C   0  0  0  0  0  0  0  0  0  0  0  0
   19.4553   -1.8028  -11.0031 C   0  0  0  0  0  0  0  0  0  0  0  0
   18.5075   -2.8445  -11.2616 C   0  0  0  0  0  0  0  0  0  0  0  0
   17.7455   -3.7117  -11.4776 N   0  0  0  0  0  0  0  0  0  0  0  0
   20.6932   -1.7330  -11.5894 C   0  0  0  0  0  0  0  0  0  0  0  0
   25.1608   -0.1185  -11.7877 C   0  0  0  0  0  0  0  0  0  0  0  0
   26.2955   -0.0094  -11.0428 C   0  0  0  0  0  0  0  0  0  0  0  0
   27.4234    0.4495  -11.8428 C   0  0  2  0  0  0  0  0  0  0  0  0
   28.0774    1.5604  -11.2833 O   0  0  0  0  0  0  0  0  0  0  0  0
   26.7546    0.9907  -13.1100 C   0  0  0  0  0  0  0  0  0  0  0  0
   25.4497    0.2697  -13.1837 C   0  0  2  0  0  0  0  0  0  0  0  0
   24.4377    1.0125  -13.7470 F   0  0  0  0  0  0  0  0  0  0  0  0
  1  2  1  1
  2  3  2  0
  2  4  2  0
  2  5  1  6
  5  6  2  0
  6  7  1  0
  7  8  2  0
  8  9  1  0
  9 10  1  0
 10 11  2  0
 11 12  1  0
 12 13  1  0
 12 14  2  0
 14 15  1  0
 15 16  1  0
 16 17  3  0
 15 18  2  0
  8 19  1  0
 19 20  2  0
 20 21  1  0
 21 22  1  1
 23 21  1  1
 23 24  1  0
 24 25  1  1
 20  5  1  0
 18 10  1  0
 24 19  1  0
M  END
$$$$
