_rank20
     RDKit          3D

 25 27  0  0  0  0  0  0  0  0999 V2000
   28.9709   -1.3404  -10.3477 C   0  0  0  0  0  0  0  0  0  0  0  0
   27.7507   -1.4529   -9.0313 S   0  0  2  0  0  6  0  0  0  0  0  0
   28.2489   -0.6513   -7.8948 O   0  0  0  0  0  0  0  0  0  0  0  0
   27.6817   -2.8954   -8.5552 O   0  0  0  0  0  0  0  0  0  0  0  0
   26.2402   -0.9421   -9.6842 C   0  0  0  0  0  0  0  0  0  0  0  0
   25.1255   -1.7268   -9.4871 C   0  0  0  0  0  0  0  0  0  0  0  0
   23.9075   -1.3233  -10.0087 C   0  0  0  0  0  0  0  0  0  0  0  0
   23.8392   -0.1458  -10.7128 C   0  0  0  0  0  0  0  0  0  0  0  0
   22.6230    0.2604  -11.2355 O   0  0  0  0  0  0  0  0  0  0  0  0
   21.4629   -0.4246  -10.9460 C   0  0  0  0  0  0  0  0  0  0  0  0
   21.2682   -1.0545   -9.7294 C   0  0  0  0  0  0  0  0  0  0  0  0
   20.1031   -1.7385   -9.4478 C   0  0  0  0  0  0  0  0  0  0  0  0
   19.9564   -2.3371   -8.2497 F   0  0  0  0  0  0  0  0  0  0  0  0
   19.1095   -1.8017  -10.3873 C   0  0  0  0  0  0  0  0  0  0  0  0
   19.2788   -1.1769  -11.6200 C   0  0  0  0  0  0  0  0  0  0  0  0
   18.1976   -1.2855  -12.5524 C   0  0  0  0  0  0  0  0  0  0  0  0
   17.3055   -1.3925  -13.3088 N   0  0  0  0  0  0  0  0  0  0  0  0
   20.4452   -0.5030  -11.8773 C   0  0  0  0  0  0  0  0  0  0  0  0
   24.9825    0.6583  -10.9145 C   0  0  0  0  0  0  0  0  0  0  0  0
   26.1752    0.2526  -10.3976 C   0  0  0  0  0  0  0  0  0  0  0  0
   27.2428    1.1971  -10.6998 C   0  0  2  0  0  0  0  0  0  0  0  0
   27.9587    1.5996   -9.5595 O   0  0  0  0  0  0  0  0  0  0  0  0
   26.4834    2.4510  -11.1438 C   0  0  0  0  0  0  0  0  0  0  0  0
   25.1647    1.9418  -11.6231 C   0  0  2  0  0  0  0  0  0  0  0  0
   24.1235    2.8161  -11.4113 F   0  0  0  0  0  0  0  0  0  0  0  0
  1  2  1  1
  2  3  2  0
  2  4  2  0
  2  5  1  6
  5  6  2  0
  6  7  1  0
  7  8  2  0
  8  9  1  0
  9 10  1  0
 10 11  2  0
 11 12  1  0
 12 13  1  0
 12 14  2  0
 14 15  1  0
 15 16  1  0
 16 17  3  0
 15 18  2  0
  8 19  1  0
 19 20  2  0
 20 21  1  0
 21 22  1  1
 23 21  1  1
 23 24  1  0
 24 25  1  1
 20  5  1  0
 18 10  1  0
 24 19  1  0
M  END
$$$$
