_rank1
     RDKit          3D

 25 27  0  0  0  0  0  0  0  0999 V2000
   28.5865   -1.5488   -8.9809 C   0  0  0  0  0  0  0  0  0  0  0  0
   27.5777   -0.1659   -8.4294 S   0  0  2  0  0  6  0  0  0  0  0  0
   28.4127    1.0505   -8.5053 O   0  0  0  0  0  0  0  0  0  0  0  0
   27.2323   -0.3712   -6.9629 O   0  0  0  0  0  0  0  0  0  0  0  0
   26.1572   -0.1436   -9.4041 C   0  0  0  0  0  0  0  0  0  0  0  0
   24.9326   -0.3500   -8.8084 C   0  0  0  0  0  0  0  0  0  0  0  0
   23.7859   -0.3337   -9.5849 C   0  0  0  0  0  0  0  0  0  0  0  0
   23.8967   -0.1112  -10.9359 C   0  0  0  0  0  0  0  0  0  0  0  0
   22.7521   -0.0942  -11.7151 O   0  0  0  0  0  0  0  0  0  0  0  0
   21.5163   -0.3561  -11.1648 C   0  0  0  0  0  0  0  0  0  0  0  0
   20.9453   -1.6158  -11.2119 C   0  0  0  0  0  0  0  0  0  0  0  0
   19.7069   -1.8693  -10.6582 C   0  0  0  0  0  0  0  0  0  0  0  0
   19.1892   -3.1113  -10.7273 F   0  0  0  0  0  0  0  0  0  0  0  0
   19.0180   -0.8578  -10.0450 C   0  0  0  0  0  0  0  0  0  0  0  0
   19.5687    0.4194   -9.9831 C   0  0  0  0  0  0  0  0  0  0  0  0
   18.7909    1.4265   -9.3267 C   0  0  0  0  0  0  0  0  0  0  0  0
   18.1688    2.2653   -8.7893 N   0  0  0  0  0  0  0  0  0  0  0  0
   20.8009    0.6477  -10.5404 C   0  0  0  0  0  0  0  0  0  0  0  0
   25.1527    0.1004  -11.5461 C   0  0  0  0  0  0  0  0  0  0  0  0
   26.2740    0.0824  -10.7738 C   0  0  0  0  0  0  0  0  0  0  0  0
   27.4761    0.3166  -11.5632 C   0  0  2  0  0  0  0  0  0  0  0  0
   28.2790    1.3481  -11.0478 O   0  0  0  0  0  0  0  0  0  0  0  0
   26.9255    0.8741  -12.8793 C   0  0  0  0  0  0  0  0  0  0  0  0
   25.5280    0.3548  -12.9523 C   0  0  2  0  0  0  0  0  0  0  0  0
   24.6536    1.2059  -13.5881 F   0  0  0  0  0  0  0  0  0  0  0  0
  1  2  1  1
  2  3  2  0
  2  4  2  0
  2  5  1  6
  5  6  2  0
  6  7  1  0
  7  8  2  0
  8  9  1  0
  9 10  1  0
 10 11  2  0
 11 12  1  0
 12 13  1  0
 12 14  2  0
 14 15  1  0
 15 16  1  0
 16 17  3  0
 15 18  2  0
  8 19  1  0
 19 20  2  0
 20 21  1  0
 21 22  1  1
 23 21  1  1
 23 24  1  0
 24 25  1  1
 20  5  1  0
 18 10  1  0
 24 19  1  0
M  END
$$$$
