_rank2
     RDKit          3D

 25 27  0  0  0  0  0  0  0  0999 V2000
   28.2531    1.0273   -8.3431 C   0  0  0  0  0  0  0  0  0  0  0  0
   27.7328   -0.6582   -8.6931 S   0  0  2  0  0  6  0  0  0  0  0  0
   27.6089   -1.3619   -7.4000 O   0  0  0  0  0  0  0  0  0  0  0  0
   28.8382   -1.3564   -9.4694 O   0  0  0  0  0  0  0  0  0  0  0  0
   26.2843   -0.5677   -9.6217 C   0  0  0  0  0  0  0  0  0  0  0  0
   25.0805   -0.8487   -9.0143 C   0  0  0  0  0  0  0  0  0  0  0  0
   23.9115   -0.7782   -9.7537 C   0  0  0  0  0  0  0  0  0  0  0  0
   23.9799   -0.4286  -11.0804 C   0  0  0  0  0  0  0  0  0  0  0  0
   22.8131   -0.3573  -11.8224 O   0  0  0  0  0  0  0  0  0  0  0  0
   21.5909   -0.6349  -11.2497 C   0  0  0  0  0  0  0  0  0  0  0  0
   21.0269   -1.8974  -11.3027 C   0  0  0  0  0  0  0  0  0  0  0  0
   19.8022   -2.1668  -10.7263 C   0  0  0  0  0  0  0  0  0  0  0  0
   19.2907   -3.4109  -10.8021 F   0  0  0  0  0  0  0  0  0  0  0  0
   19.1203   -1.1685  -10.0843 C   0  0  0  0  0  0  0  0  0  0  0  0
   19.6644    0.1113  -10.0158 C   0  0  0  0  0  0  0  0  0  0  0  0
   18.8946    1.1040   -9.3287 C   0  0  0  0  0  0  0  0  0  0  0  0
   18.2480    1.9047   -8.7630 N   0  0  0  0  0  0  0  0  0  0  0  0
   20.8830    0.3554  -10.5960 C   0  0  0  0  0  0  0  0  0  0  0  0
   25.2147   -0.1407  -11.7026 C   0  0  0  0  0  0  0  0  0  0  0  0
   26.3582   -0.2128  -10.9668 C   0  0  0  0  0  0  0  0  0  0  0  0
   27.5335    0.1134  -11.7638 C   0  0  2  0  0  0  0  0  0  0  0  0
   28.3372    1.1051  -11.1762 O   0  0  0  0  0  0  0  0  0  0  0  0
   26.9374    0.7827  -13.0059 C   0  0  0  0  0  0  0  0  0  0  0  0
   25.5455    0.2500  -13.0885 C   0  0  2  0  0  0  0  0  0  0  0  0
   24.6415    1.1427  -13.6171 F   0  0  0  0  0  0  0  0  0  0  0  0
  1  2  1  1
  2  3  2  0
  2  4  2  0
  2  5  1  6
  5  6  2  0
  6  7  1  0
  7  8  2  0
  8  9  1  0
  9 10  1  0
 10 11  2  0
 11 12  1  0
 12 13  1  0
 12 14  2  0
 14 15  1  0
 15 16  1  0
 16 17  3  0
 15 18  2  0
  8 19  1  0
 19 20  2  0
 20 21  1  0
 21 22  1  1
 23 21  1  1
 23 24  1  0
 24 25  1  1
 20  5  1  0
 18 10  1  0
 24 19  1  0
M  END
$$$$
