_rank19
     RDKit          3D

 25 27  0  0  0  0  0  0  0  0999 V2000
   27.8674    2.1251  -12.9858 C   0  0  0  0  0  0  0  0  0  0  0  0
   27.5465    0.3619  -12.8358 S   0  0  2  0  0  6  0  0  0  0  0  0
   28.8089   -0.2854  -12.4237 O   0  0  0  0  0  0  0  0  0  0  0  0
   27.1993   -0.1872  -14.2106 O   0  0  0  0  0  0  0  0  0  0  0  0
   26.2307    0.1693  -11.7404 C   0  0  0  0  0  0  0  0  0  0  0  0
   24.9716   -0.0759  -12.2422 C   0  0  0  0  0  0  0  0  0  0  0  0
   23.9084   -0.2320  -11.3683 C   0  0  0  0  0  0  0  0  0  0  0  0
   24.1350   -0.1384  -10.0167 C   0  0  0  0  0  0  0  0  0  0  0  0
   23.0743   -0.2939   -9.1403 O   0  0  0  0  0  0  0  0  0  0  0  0
   21.8012   -0.5421   -9.6056 C   0  0  0  0  0  0  0  0  0  0  0  0
   21.4562   -1.7492  -10.1875 C   0  0  0  0  0  0  0  0  0  0  0  0
   20.1786   -1.9893  -10.6509 C   0  0  0  0  0  0  0  0  0  0  0  0
   19.8870   -3.1796  -11.2108 F   0  0  0  0  0  0  0  0  0  0  0  0
   19.2218   -1.0170  -10.5372 C   0  0  0  0  0  0  0  0  0  0  0  0
   19.5414    0.2070   -9.9558 C   0  0  0  0  0  0  0  0  0  0  0  0
   18.4900    1.1754   -9.8710 C   0  0  0  0  0  0  0  0  0  0  0  0
   17.6417    1.9844   -9.7995 N   0  0  0  0  0  0  0  0  0  0  0  0
   20.8177    0.4229   -9.5025 C   0  0  0  0  0  0  0  0  0  0  0  0
   25.4263    0.1130   -9.5028 C   0  0  0  0  0  0  0  0  0  0  0  0
   26.4648    0.2649  -10.3704 C   0  0  0  0  0  0  0  0  0  0  0  0
   27.7183    0.5174   -9.6719 C   0  0  2  0  0  0  0  0  0  0  0  0
   28.7501   -0.3520  -10.0642 O   0  0  0  0  0  0  0  0  0  0  0  0
   27.3999    0.1155   -8.2285 C   0  0  0  0  0  0  0  0  0  0  0  0
   25.9182    0.2567   -8.1171 C   0  0  2  0  0  0  0  0  0  0  0  0
   25.3395   -0.6450   -7.2536 F   0  0  0  0  0  0  0  0  0  0  0  0
  1  2  1  1
  2  3  2  0
  2  4  2  0
  2  5  1  1
  5  6  2  0
  6  7  1  0
  7  8  2  0
  8  9  1  0
  9 10  1  0
 10 11  2  0
 11 12  1  0
 12 13  1  0
 12 14  2  0
 14 15  1  0
 15 16  1  0
 16 17  3  0
 15 18  2  0
  8 19  1  0
 19 20  2  0
 20 21  1  0
 21 22  1  6
 23 21  1  1
 23 24  1  0
 24 25  1  1
 20  5  1  0
 18 10  1  0
 24 19  1  0
M  END
$$$$
