_rank14
     RDKit          3D

 25 27  0  0  0  0  0  0  0  0999 V2000
   27.8595   -2.1178   -7.9896 C   0  0  0  0  0  0  0  0  0  0  0  0
   27.9290   -0.4753   -8.7189 S   0  0  2  0  0  6  0  0  0  0  0  0
   29.1696   -0.3963   -9.5170 O   0  0  0  0  0  0  0  0  0  0  0  0
   28.0593    0.5472   -7.6011 O   0  0  0  0  0  0  0  0  0  0  0  0
   26.4697   -0.2432   -9.6050 C   0  0  0  0  0  0  0  0  0  0  0  0
   25.2634   -0.3462   -8.9481 C   0  0  0  0  0  0  0  0  0  0  0  0
   24.0858   -0.1610   -9.6532 C   0  0  0  0  0  0  0  0  0  0  0  0
   24.1482    0.1222  -10.9959 C   0  0  0  0  0  0  0  0  0  0  0  0
   22.9726    0.3079  -11.7037 O   0  0  0  0  0  0  0  0  0  0  0  0
   21.7688   -0.1452  -11.2095 C   0  0  0  0  0  0  0  0  0  0  0  0
   21.4083   -1.4799  -11.2684 C   0  0  0  0  0  0  0  0  0  0  0  0
   20.2005   -1.9251  -10.7710 C   0  0  0  0  0  0  0  0  0  0  0  0
   19.8908   -3.2340  -10.8495 F   0  0  0  0  0  0  0  0  0  0  0  0
   19.3304   -1.0336  -10.2036 C   0  0  0  0  0  0  0  0  0  0  0  0
   19.6674    0.3153  -10.1312 C   0  0  0  0  0  0  0  0  0  0  0  0
   18.7083    1.1885   -9.5248 C   0  0  0  0  0  0  0  0  0  0  0  0
   17.9179    1.8906   -9.0130 N   0  0  0  0  0  0  0  0  0  0  0  0
   20.8734    0.7346  -10.6321 C   0  0  0  0  0  0  0  0  0  0  0  0
   25.3854    0.2276  -11.6689 C   0  0  0  0  0  0  0  0  0  0  0  0
   26.5374    0.0438  -10.9665 C   0  0  0  0  0  0  0  0  0  0  0  0
   27.7140    0.1875  -11.8138 C   0  0  2  0  0  0  0  0  0  0  0  0
   28.6549    1.0945  -11.2974 O   0  0  0  0  0  0  0  0  0  0  0  0
   27.1600    0.8740  -13.0660 C   0  0  0  0  0  0  0  0  0  0  0  0
   25.7109    0.5163  -13.0808 C   0  0  2  0  0  0  0  0  0  0  0  0
   24.9053    1.4922  -13.6211 F   0  0  0  0  0  0  0  0  0  0  0  0
  1  2  1  1
  2  3  2  0
  2  4  2  0
  2  5  1  6
  5  6  2  0
  6  7  1  0
  7  8  2  0
  8  9  1  0
  9 10  1  0
 10 11  2  0
 11 12  1  0
 12 13  1  0
 12 14  2  0
 14 15  1  0
 15 16  1  0
 16 17  3  0
 15 18  2  0
  8 19  1  0
 19 20  2  0
 20 21  1  0
 21 22  1  1
 23 21  1  1
 23 24  1  0
 24 25  1  1
 20  5  1  0
 18 10  1  0
 24 19  1  0
M  END
$$$$
