_rank12
     RDKit          3D

 25 27  0  0  0  0  0  0  0  0999 V2000
   28.7001    0.7513   -8.8566 C   0  0  0  0  0  0  0  0  0  0  0  0
   27.8417   -0.8290   -8.8653 S   0  0  2  0  0  6  0  0  0  0  0  0
   27.6615   -1.2439   -7.4589 O   0  0  0  0  0  0  0  0  0  0  0  0
   28.7413   -1.8667   -9.5180 O   0  0  0  0  0  0  0  0  0  0  0  0
   26.3852   -0.6190   -9.7614 C   0  0  0  0  0  0  0  0  0  0  0  0
   25.1759   -0.7666   -9.1187 C   0  0  0  0  0  0  0  0  0  0  0  0
   24.0005   -0.5993   -9.8319 C   0  0  0  0  0  0  0  0  0  0  0  0
   24.0680   -0.2891  -11.1684 C   0  0  0  0  0  0  0  0  0  0  0  0
   22.8947   -0.1213  -11.8842 O   0  0  0  0  0  0  0  0  0  0  0  0
   21.6798   -0.4933  -11.3510 C   0  0  0  0  0  0  0  0  0  0  0  0
   21.2474   -1.8078  -11.3597 C   0  0  0  0  0  0  0  0  0  0  0  0
   20.0290   -2.1716  -10.8234 C   0  0  0  0  0  0  0  0  0  0  0  0
   19.6483   -3.4636  -10.8537 F   0  0  0  0  0  0  0  0  0  0  0  0
   19.2207   -1.2174  -10.2668 C   0  0  0  0  0  0  0  0  0  0  0  0
   19.6307    0.1130  -10.2443 C   0  0  0  0  0  0  0  0  0  0  0  0
   18.7334    1.0549   -9.6463 C   0  0  0  0  0  0  0  0  0  0  0  0
   17.9826    1.8213   -9.1684 N   0  0  0  0  0  0  0  0  0  0  0  0
   20.8458    0.4509  -10.7834 C   0  0  0  0  0  0  0  0  0  0  0  0
   25.3083   -0.1379  -11.8268 C   0  0  0  0  0  0  0  0  0  0  0  0
   26.4581   -0.3044  -11.1166 C   0  0  0  0  0  0  0  0  0  0  0  0
   27.6384   -0.1133  -11.9493 C   0  0  2  0  0  0  0  0  0  0  0  0
   28.5497    0.8084  -11.4065 O   0  0  0  0  0  0  0  0  0  0  0  0
   27.0781    0.5819  -13.1937 C   0  0  0  0  0  0  0  0  0  0  0  0
   25.6393    0.1862  -13.2297 C   0  0  2  0  0  0  0  0  0  0  0  0
   24.8130    1.1504  -13.7596 F   0  0  0  0  0  0  0  0  0  0  0  0
  1  2  1  1
  2  3  2  0
  2  4  2  0
  2  5  1  6
  5  6  2  0
  6  7  1  0
  7  8  2  0
  8  9  1  0
  9 10  1  0
 10 11  2  0
 11 12  1  0
 12 13  1  0
 12 14  2  0
 14 15  1  0
 15 16  1  0
 16 17  3  0
 15 18  2  0
  8 19  1  0
 19 20  2  0
 20 21  1  0
 21 22  1  1
 23 21  1  1
 23 24  1  0
 24 25  1  1
 20  5  1  0
 18 10  1  0
 24 19  1  0
M  END
$$$$
