_rank9
     RDKit          3D

 25 27  0  0  0  0  0  0  0  0999 V2000
   27.4872   -0.2161   -7.1858 C   0  0  0  0  0  0  0  0  0  0  0  0
   27.8994   -0.2325   -8.9363 S   0  0  2  0  0  6  0  0  0  0  0  0
   28.7218   -1.4338   -9.1872 O   0  0  0  0  0  0  0  0  0  0  0  0
   28.7764    0.9720   -9.2400 O   0  0  0  0  0  0  0  0  0  0  0  0
   26.4189   -0.1593   -9.8146 C   0  0  0  0  0  0  0  0  0  0  0  0
   25.2384   -0.4382   -9.1622 C   0  0  0  0  0  0  0  0  0  0  0  0
   24.0440   -0.3816   -9.8611 C   0  0  0  0  0  0  0  0  0  0  0  0
   24.0644   -0.0475  -11.1934 C   0  0  0  0  0  0  0  0  0  0  0  0
   22.8720    0.0100  -11.8950 O   0  0  0  0  0  0  0  0  0  0  0  0
   21.6764   -0.3065  -11.2875 C   0  0  0  0  0  0  0  0  0  0  0  0
   21.1782   -1.5975  -11.2787 C   0  0  0  0  0  0  0  0  0  0  0  0
   19.9797   -1.9057  -10.6678 C   0  0  0  0  0  0  0  0  0  0  0  0
   19.5327   -3.1766  -10.6836 F   0  0  0  0  0  0  0  0  0  0  0  0
   19.2580   -0.9183  -10.0529 C   0  0  0  0  0  0  0  0  0  0  0  0
   19.7356    0.3895  -10.0466 C   0  0  0  0  0  0  0  0  0  0  0  0
   18.9273    1.3685   -9.3846 C   0  0  0  0  0  0  0  0  0  0  0  0
   18.2501    2.1573   -8.8382 N   0  0  0  0  0  0  0  0  0  0  0  0
   20.9293    0.6720  -10.6601 C   0  0  0  0  0  0  0  0  0  0  0  0
   25.2753    0.2383  -11.8618 C   0  0  0  0  0  0  0  0  0  0  0  0
   26.4441    0.1799  -11.1656 C   0  0  0  0  0  0  0  0  0  0  0  0
   27.5893    0.5017  -12.0070 C   0  0  2  0  0  0  0  0  0  0  0  0
   28.4083    1.5037  -11.4595 O   0  0  0  0  0  0  0  0  0  0  0  0
   26.9470    1.1536  -13.2352 C   0  0  0  0  0  0  0  0  0  0  0  0
   25.5556    0.6139  -13.2629 C   0  0  2  0  0  0  0  0  0  0  0  0
   24.6296    1.4963  -13.7700 F   0  0  0  0  0  0  0  0  0  0  0  0
  1  2  1  1
  2  3  2  0
  2  4  2  0
  2  5  1  6
  5  6  2  0
  6  7  1  0
  7  8  2  0
  8  9  1  0
  9 10  1  0
 10 11  2  0
 11 12  1  0
 12 13  1  0
 12 14  2  0
 14 15  1  0
 15 16  1  0
 16 17  3  0
 15 18  2  0
  8 19  1  0
 19 20  2  0
 20 21  1  0
 21 22  1  1
 23 21  1  1
 23 24  1  0
 24 25  1  1
 20  5  1  0
 18 10  1  0
 24 19  1  0
M  END
$$$$
