_rank8
     RDKit          3D

 25 27  0  0  0  0  0  0  0  0999 V2000
   28.5301   -1.3200   -8.8558 C   0  0  0  0  0  0  0  0  0  0  0  0
   27.4313    0.0090   -8.3452 S   0  0  2  0  0  6  0  0  0  0  0  0
   28.1963    1.2706   -8.4201 O   0  0  0  0  0  0  0  0  0  0  0  0
   27.0657   -0.1974   -6.8838 O   0  0  0  0  0  0  0  0  0  0  0  0
   26.0339   -0.0632   -9.3506 C   0  0  0  0  0  0  0  0  0  0  0  0
   24.8141   -0.3566   -8.7821 C   0  0  0  0  0  0  0  0  0  0  0  0
   23.6859   -0.4165   -9.5833 C   0  0  0  0  0  0  0  0  0  0  0  0
   23.8100   -0.1813  -10.9310 C   0  0  0  0  0  0  0  0  0  0  0  0
   22.6840   -0.2405  -11.7347 O   0  0  0  0  0  0  0  0  0  0  0  0
   21.4208   -0.2570  -11.1846 C   0  0  0  0  0  0  0  0  0  0  0  0
   20.8598    0.8668  -10.6038 C   0  0  0  0  0  0  0  0  0  0  0  0
   19.5938    0.8414  -10.0551 C   0  0  0  0  0  0  0  0  0  0  0  0
   19.0871    1.9595   -9.4998 F   0  0  0  0  0  0  0  0  0  0  0  0
   18.8665   -0.3181  -10.0806 C   0  0  0  0  0  0  0  0  0  0  0  0
   19.4064   -1.4638  -10.6587 C   0  0  0  0  0  0  0  0  0  0  0  0
   18.5880   -2.6387  -10.6486 C   0  0  0  0  0  0  0  0  0  0  0  0
   17.9289   -3.6107  -10.6546 N   0  0  0  0  0  0  0  0  0  0  0  0
   20.6665   -1.4147  -11.1977 C   0  0  0  0  0  0  0  0  0  0  0  0
   25.0611    0.1194  -11.5132 C   0  0  0  0  0  0  0  0  0  0  0  0
   26.1641    0.1760  -10.7168 C   0  0  0  0  0  0  0  0  0  0  0  0
   27.3637    0.4963  -11.4793 C   0  0  2  0  0  0  0  0  0  0  0  0
   28.0818    1.5789  -10.9438 O   0  0  0  0  0  0  0  0  0  0  0  0
   26.8041    1.0197  -12.8055 C   0  0  0  0  0  0  0  0  0  0  0  0
   25.4480    0.4050  -12.9102 C   0  0  2  0  0  0  0  0  0  0  0  0
   24.5304    1.1960  -13.5626 F   0  0  0  0  0  0  0  0  0  0  0  0
  1  2  1  1
  2  3  2  0
  2  4  2  0
  2  5  1  6
  5  6  2  0
  6  7  1  0
  7  8  2  0
  8  9  1  0
  9 10  1  0
 10 11  2  0
 11 12  1  0
 12 13  1  0
 12 14  2  0
 14 15  1  0
 15 16  1  0
 16 17  3  0
 15 18  2  0
  8 19  1  0
 19 20  2  0
 20 21  1  0
 21 22  1  1
 23 21  1  1
 23 24  1  0
 24 25  1  1
 20  5  1  0
 18 10  1  0
 24 19  1  0
M  END
$$$$
