_rank7
     RDKit          3D

 25 27  0  0  0  0  0  0  0  0999 V2000
   28.2474    1.0288   -8.4560 C   0  0  0  0  0  0  0  0  0  0  0  0
   27.7522   -0.6616   -8.8192 S   0  0  2  0  0  6  0  0  0  0  0  0
   27.6193   -1.3716   -7.5305 O   0  0  0  0  0  0  0  0  0  0  0  0
   28.8764   -1.3435   -9.5830 O   0  0  0  0  0  0  0  0  0  0  0  0
   26.3155   -0.5850   -9.7671 C   0  0  0  0  0  0  0  0  0  0  0  0
   25.1189   -0.9673   -9.2020 C   0  0  0  0  0  0  0  0  0  0  0  0
   23.9594   -0.9086   -9.9573 C   0  0  0  0  0  0  0  0  0  0  0  0
   24.0297   -0.4691  -11.2568 C   0  0  0  0  0  0  0  0  0  0  0  0
   22.8723   -0.4093  -12.0145 O   0  0  0  0  0  0  0  0  0  0  0  0
   21.6395   -0.6425  -11.4448 C   0  0  0  0  0  0  0  0  0  0  0  0
   21.0370   -1.8875  -11.4862 C   0  0  0  0  0  0  0  0  0  0  0  0
   19.8019   -2.1123  -10.9130 C   0  0  0  0  0  0  0  0  0  0  0  0
   19.2526   -3.3410  -10.9772 F   0  0  0  0  0  0  0  0  0  0  0  0
   19.1481   -1.0861  -10.2858 C   0  0  0  0  0  0  0  0  0  0  0  0
   19.7311    0.1769  -10.2293 C   0  0  0  0  0  0  0  0  0  0  0  0
   18.9891    1.2008   -9.5574 C   0  0  0  0  0  0  0  0  0  0  0  0
   18.3981    2.0496   -9.0010 N   0  0  0  0  0  0  0  0  0  0  0  0
   20.9594    0.3766  -10.8060 C   0  0  0  0  0  0  0  0  0  0  0  0
   25.2570   -0.0772  -11.8355 C   0  0  0  0  0  0  0  0  0  0  0  0
   26.3912   -0.1386  -11.0845 C   0  0  0  0  0  0  0  0  0  0  0  0
   27.5598    0.3000  -11.8362 C   0  0  2  0  0  0  0  0  0  0  0  0
   28.3008    1.2909  -11.1702 O   0  0  0  0  0  0  0  0  0  0  0  0
   26.9484    1.0181  -13.0431 C   0  0  0  0  0  0  0  0  0  0  0  0
   25.5880    0.4209  -13.1865 C   0  0  2  0  0  0  0  0  0  0  0  0
   24.6464    1.2985  -13.6728 F   0  0  0  0  0  0  0  0  0  0  0  0
  1  2  1  1
  2  3  2  0
  2  4  2  0
  2  5  1  6
  5  6  2  0
  6  7  1  0
  7  8  2  0
  8  9  1  0
  9 10  1  0
 10 11  2  0
 11 12  1  0
 12 13  1  0
 12 14  2  0
 14 15  1  0
 15 16  1  0
 16 17  3  0
 15 18  2  0
  8 19  1  0
 19 20  2  0
 20 21  1  0
 21 22  1  1
 23 21  1  1
 23 24  1  0
 24 25  1  1
 20  5  1  0
 18 10  1  0
 24 19  1  0
M  END
$$$$
