_rank3
     RDKit          3D

 25 27  0  0  0  0  0  0  0  0999 V2000
   28.5323    0.8557   -8.9036 C   0  0  0  0  0  0  0  0  0  0  0  0
   27.5224   -0.6071   -8.6303 S   0  0  2  0  0  6  0  0  0  0  0  0
   27.3456   -0.7580   -7.1714 O   0  0  0  0  0  0  0  0  0  0  0  0
   28.2948   -1.8267   -9.1080 O   0  0  0  0  0  0  0  0  0  0  0  0
   26.0668   -0.4033   -9.5294 C   0  0  0  0  0  0  0  0  0  0  0  0
   24.8569   -0.5500   -8.8877 C   0  0  0  0  0  0  0  0  0  0  0  0
   23.6822   -0.3878   -9.6032 C   0  0  0  0  0  0  0  0  0  0  0  0
   23.7511   -0.0834  -10.9409 C   0  0  0  0  0  0  0  0  0  0  0  0
   22.5785    0.0794  -11.6592 O   0  0  0  0  0  0  0  0  0  0  0  0
   21.3543   -0.1930  -11.0884 C   0  0  0  0  0  0  0  0  0  0  0  0
   20.6452    0.7638  -10.3837 C   0  0  0  0  0  0  0  0  0  0  0  0
   19.4196    0.4824   -9.8152 C   0  0  0  0  0  0  0  0  0  0  0  0
   18.7641    1.4449   -9.1376 F   0  0  0  0  0  0  0  0  0  0  0  0
   18.8830   -0.7702   -9.9453 C   0  0  0  0  0  0  0  0  0  0  0  0
   19.5747   -1.7522  -10.6492 C   0  0  0  0  0  0  0  0  0  0  0  0
   18.9520   -3.0381  -10.7437 C   0  0  0  0  0  0  0  0  0  0  0  0
   18.4597   -4.1014  -10.8228 N   0  0  0  0  0  0  0  0  0  0  0  0
   20.7912   -1.4494  -11.2055 C   0  0  0  0  0  0  0  0  0  0  0  0
   24.9920    0.0668  -11.5983 C   0  0  0  0  0  0  0  0  0  0  0  0
   26.1411   -0.0947  -10.8858 C   0  0  0  0  0  0  0  0  0  0  0  0
   27.3223    0.0946  -11.7177 C   0  0  2  0  0  0  0  0  0  0  0  0
   28.2314    1.0201  -11.1778 O   0  0  0  0  0  0  0  0  0  0  0  0
   26.7626    0.7834  -12.9660 C   0  0  0  0  0  0  0  0  0  0  0  0
   25.3245    0.3852  -13.0022 C   0  0  2  0  0  0  0  0  0  0  0  0
   24.4973    1.3458  -13.5375 F   0  0  0  0  0  0  0  0  0  0  0  0
  1  2  1  1
  2  3  2  0
  2  4  2  0
  2  5  1  6
  5  6  2  0
  6  7  1  0
  7  8  2  0
  8  9  1  0
  9 10  1  0
 10 11  2  0
 11 12  1  0
 12 13  1  0
 12 14  2  0
 14 15  1  0
 15 16  1  0
 16 17  3  0
 15 18  2  0
  8 19  1  0
 19 20  2  0
 20 21  1  0
 21 22  1  1
 23 21  1  1
 23 24  1  0
 24 25  1  1
 20  5  1  0
 18 10  1  0
 24 19  1  0
M  END
$$$$
