_rank8
     RDKit          3D

 18 20  0  0  0  0  0  0  0  0999 V2000
   25.6293    1.8598   -8.9327 C   0  0  0  0  0  0  0  0  0  0  0  0
   26.0774    0.1450   -8.9317 S   0  0  1  0  0  6  0  0  0  0  0  0
   27.2289   -0.0369   -7.9923 O   0  0  0  0  0  0  0  0  0  0  0  0
   24.9691   -0.7324   -8.4754 O   0  0  0  0  0  0  0  0  0  0  0  0
   26.5545   -0.3178  -10.5732 C   0  0  2  0  0  0  0  0  0  0  0  0
   27.3165    0.7900  -11.2699 C   0  0  0  0  0  0  0  0  0  0  0  0
   27.2019    0.3957  -12.7243 C   0  0  0  0  0  0  0  0  0  0  0  0
   25.9644   -0.4926  -12.8233 C   0  0  0  0  0  0  0  0  0  0  0  0
   25.3121   -0.3649  -11.4727 C   0  0  1  0  0  0  0  0  0  0  0  0
   24.4354   -1.4325  -11.1405 N   0  0  0  0  0  0  0  0  0  0  0  0
   23.2157   -0.8147  -10.6866 C   0  0  0  0  0  0  0  0  0  0  0  0
   22.0406   -1.3166  -10.1772 C   0  0  0  0  0  0  0  0  0  0  0  0
   20.9882   -0.4853   -9.8052 C   0  0  0  0  0  0  0  0  0  0  0  0
   19.8311   -0.9951   -9.3026 F   0  0  0  0  0  0  0  0  0  0  0  0
   21.1549    0.8591   -9.9611 C   0  0  0  0  0  0  0  0  0  0  0  0
   22.3128    1.4283  -10.4679 C   0  0  0  0  0  0  0  0  0  0  0  0
   23.3205    0.5541  -10.8190 C   0  0  0  0  0  0  0  0  0  0  0  0
   24.5728    0.8261  -11.3446 O   0  0  0  0  0  0  0  0  0  0  0  0
  2  1  1  6
  2  3  2  0
  2  4  2  0
  5  2  1  1
  5  6  1  0
  6  7  1  1
  7  8  1  1
  8  9  1  6
  9 10  1  1
 10 11  1  0
 11 12  2  0
 12 13  1  0
 13 14  1  0
 13 15  2  0
 15 16  1  0
 16 17  2  0
 17 18  1  0
  9  5  1  0
 17 11  1  0
  9 18  1  0
M  END
$$$$
