_rank17
     RDKit          3D

 18 20  0  0  0  0  0  0  0  0999 V2000
   23.9554   -2.2321  -10.3393 C   0  0  0  0  0  0  0  0  0  0  0  0
   22.6860   -0.9953  -10.3538 S   0  0  1  0  0  6  0  0  0  0  0  0
   21.3729   -1.6755  -10.5872 O   0  0  0  0  0  0  0  0  0  0  0  0
   22.5981   -0.2551   -9.0689 O   0  0  0  0  0  0  0  0  0  0  0  0
   23.0202    0.1455  -11.6665 C   0  0  2  0  0  0  0  0  0  0  0  0
   22.9640   -0.5265  -13.0224 C   0  0  0  0  0  0  0  0  0  0  0  0
   23.7134    0.4506  -13.8985 C   0  0  0  0  0  0  0  0  0  0  0  0
   24.6156    1.2496  -12.9616 C   0  0  0  0  0  0  0  0  0  0  0  0
   24.5056    0.5299  -11.6442 C   0  0  1  0  0  0  0  0  0  0  0  0
   24.8505    1.3184  -10.5135 N   0  0  0  0  0  0  0  0  0  0  0  0
   25.7707    0.5217   -9.7429 C   0  0  0  0  0  0  0  0  0  0  0  0
   26.3934    0.7128   -8.5313 C   0  0  0  0  0  0  0  0  0  0  0  0
   27.2592   -0.2352   -7.9939 C   0  0  0  0  0  0  0  0  0  0  0  0
   27.8684   -0.0333   -6.7941 F   0  0  0  0  0  0  0  0  0  0  0  0
   27.4772   -1.3747   -8.7103 C   0  0  0  0  0  0  0  0  0  0  0  0
   26.8817   -1.6283   -9.9361 C   0  0  0  0  0  0  0  0  0  0  0  0
   26.0339   -0.6523  -10.4172 C   0  0  0  0  0  0  0  0  0  0  0  0
   25.3071   -0.6263  -11.5961 O   0  0  0  0  0  0  0  0  0  0  0  0
  2  1  1  1
  2  3  2  0
  2  4  2  0
  5  2  1  1
  5  6  1  0
  6  7  1  1
  7  8  1  1
  8  9  1  6
  9 10  1  1
 10 11  1  0
 11 12  2  0
 12 13  1  0
 13 14  1  0
 13 15  2  0
 15 16  1  0
 16 17  2  0
 17 18  1  0
  9  5  1  0
 17 11  1  0
  9 18  1  0
M  END
$$$$
