_rank15
     RDKit          3D

 18 20  0  0  0  0  0  0  0  0999 V2000
   21.2247   -0.0522   -9.9575 C   0  0  0  0  0  0  0  0  0  0  0  0
   22.9734   -0.3298  -10.0365 S   0  0  1  0  0  6  0  0  0  0  0  0
   23.6302    0.5252   -8.9978 O   0  0  0  0  0  0  0  0  0  0  0  0
   23.3378   -1.7441   -9.7651 O   0  0  0  0  0  0  0  0  0  0  0  0
   23.5479    0.1251  -11.6488 C   0  0  2  0  0  0  0  0  0  0  0  0
   23.2514   -0.9489  -12.6743 C   0  0  0  0  0  0  0  0  0  0  0  0
   24.1995   -0.5946  -13.7965 C   0  0  0  0  0  0  0  0  0  0  0  0
   25.3254    0.2137  -13.1568 C   0  0  0  0  0  0  0  0  0  0  0  0
   25.0814    0.0761  -11.6778 C   0  0  1  0  0  0  0  0  0  0  0  0
   25.6772    1.0949  -10.8868 N   0  0  0  0  0  0  0  0  0  0  0  0
   26.3784    0.4136   -9.8288 C   0  0  0  0  0  0  0  0  0  0  0  0
   27.0820    0.8536   -8.7316 C   0  0  0  0  0  0  0  0  0  0  0  0
   27.6794   -0.0324   -7.8398 C   0  0  0  0  0  0  0  0  0  0  0  0
   28.3726    0.4165   -6.7584 F   0  0  0  0  0  0  0  0  0  0  0  0
   27.5472   -1.3671   -8.0858 C   0  0  0  0  0  0  0  0  0  0  0  0
   26.8520   -1.8752   -9.1721 C   0  0  0  0  0  0  0  0  0  0  0  0
   26.2820   -0.9488  -10.0204 C   0  0  0  0  0  0  0  0  0  0  0  0
   25.5388   -1.1550  -11.1711 O   0  0  0  0  0  0  0  0  0  0  0  0
  2  1  1  6
  2  3  2  0
  2  4  2  0
  5  2  1  1
  5  6  1  0
  6  7  1  1
  7  8  1  1
  8  9  1  6
  9 10  1  1
 10 11  1  0
 11 12  2  0
 12 13  1  0
 13 14  1  0
 13 15  2  0
 15 16  1  0
 16 17  2  0
 17 18  1  0
  9  5  1  0
 17 11  1  0
  9 18  1  0
M  END
$$$$
