_rank3
     RDKit          3D

 18 20  0  0  0  0  0  0  0  0999 V2000
   24.8568    2.1016  -11.7547 C   0  0  0  0  0  0  0  0  0  0  0  0
   25.8626    0.6490  -11.8936 S   0  0  1  0  0  6  0  0  0  0  0  0
   25.0010   -0.4711  -12.3879 O   0  0  0  0  0  0  0  0  0  0  0  0
   26.9843    0.8231  -12.8517 O   0  0  0  0  0  0  0  0  0  0  0  0
   26.5129    0.2540  -10.2944 C   0  0  2  0  0  0  0  0  0  0  0  0
   27.4389   -0.9431  -10.3447 C   0  0  0  0  0  0  0  0  0  0  0  0
   27.4849   -1.3769   -8.8978 C   0  0  0  0  0  0  0  0  0  0  0  0
   26.2082   -0.8395   -8.2565 C   0  0  0  0  0  0  0  0  0  0  0  0
   25.3976   -0.3346   -9.4200 C   0  0  1  0  0  0  0  0  0  0  0  0
   24.4083    0.6250   -9.0744 N   0  0  0  0  0  0  0  0  0  0  0  0
   23.1894    0.1771   -9.6979 C   0  0  0  0  0  0  0  0  0  0  0  0
   21.9241    0.7106   -9.7799 C   0  0  0  0  0  0  0  0  0  0  0  0
   20.8970    0.0617  -10.4589 C   0  0  0  0  0  0  0  0  0  0  0  0
   19.6499    0.6009  -10.5322 F   0  0  0  0  0  0  0  0  0  0  0  0
   21.1819   -1.1339  -11.0494 C   0  0  0  0  0  0  0  0  0  0  0  0
   22.4348   -1.7254  -11.0039 C   0  0  0  0  0  0  0  0  0  0  0  0
   23.4118   -1.0353  -10.3168 C   0  0  0  0  0  0  0  0  0  0  0  0
   24.7385   -1.3727  -10.1051 O   0  0  0  0  0  0  0  0  0  0  0  0
  2  1  1  1
  2  3  2  0
  2  4  2  0
  5  2  1  6
  5  6  1  0
  6  7  1  1
  7  8  1  1
  8  9  1  6
  9 10  1  1
 10 11  1  0
 11 12  2  0
 12 13  1  0
 13 14  1  0
 13 15  2  0
 15 16  1  0
 16 17  2  0
 17 18  1  0
  9  5  1  0
 17 11  1  0
  9 18  1  0
M  END
$$$$
