_rank20
     RDKit          3D

 18 20  0  0  0  0  0  0  0  0999 V2000
   22.5658   -1.7682   -9.0733 C   0  0  0  0  0  0  0  0  0  0  0  0
   22.2096   -0.1878   -9.7922 S   0  0  1  0  0  6  0  0  0  0  0  0
   20.7619    0.1155   -9.5611 O   0  0  0  0  0  0  0  0  0  0  0  0
   23.0108    0.9065   -9.1863 O   0  0  0  0  0  0  0  0  0  0  0  0
   22.5432   -0.2667  -11.5297 C   0  0  2  0  0  0  0  0  0  0  0  0
   22.0652   -1.5699  -12.1347 C   0  0  0  0  0  0  0  0  0  0  0  0
   22.8400   -1.6278  -13.4309 C   0  0  0  0  0  0  0  0  0  0  0  0
   24.0715   -0.7496  -13.2246 C   0  0  0  0  0  0  0  0  0  0  0  0
   24.0525   -0.4307  -11.7537 C   0  0  1  0  0  0  0  0  0  0  0  0
   24.7890    0.7301  -11.3947 N   0  0  0  0  0  0  0  0  0  0  0  0
   25.6250    0.3404  -10.2882 C   0  0  0  0  0  0  0  0  0  0  0  0
   26.4993    1.0311   -9.4814 C   0  0  0  0  0  0  0  0  0  0  0  0
   27.2021    0.4050   -8.4562 C   0  0  0  0  0  0  0  0  0  0  0  0
   28.0638    1.1003   -7.6655 F   0  0  0  0  0  0  0  0  0  0  0  0
   26.9983   -0.9303   -8.2697 C   0  0  0  0  0  0  0  0  0  0  0  0
   26.1322   -1.6836   -9.0470 C   0  0  0  0  0  0  0  0  0  0  0  0
   25.4642   -1.0080  -10.0471 C   0  0  0  0  0  0  0  0  0  0  0  0
   24.5490   -1.4887  -10.9690 O   0  0  0  0  0  0  0  0  0  0  0  0
  2  1  1  1
  2  3  2  0
  2  4  2  0
  5  2  1  1
  5  6  1  0
  6  7  1  1
  7  8  1  1
  8  9  1  6
  9 10  1  6
 10 11  1  0
 11 12  2  0
 12 13  1  0
 13 14  1  0
 13 15  2  0
 15 16  1  0
 16 17  2  0
 17 18  1  0
  9  5  1  0
 17 11  1  0
  9 18  1  0
M  END
$$$$
