_rank1
     RDKit          3D

 18 20  0  0  0  0  0  0  0  0999 V2000
   26.7377    0.9569  -12.9693 C   0  0  0  0  0  0  0  0  0  0  0  0
   25.7909    1.2906  -11.5086 S   0  0  1  0  0  6  0  0  0  0  0  0
   25.9153    2.7490  -11.1937 O   0  0  0  0  0  0  0  0  0  0  0  0
   24.3488    0.9794  -11.6819 O   0  0  0  0  0  0  0  0  0  0  0  0
   26.4438    0.3242  -10.1760 C   0  0  2  0  0  0  0  0  0  0  0  0
   27.3635   -0.7708  -10.6744 C   0  0  0  0  0  0  0  0  0  0  0  0
   27.4115   -1.7141   -9.4947 C   0  0  0  0  0  0  0  0  0  0  0  0
   26.1395   -1.4506   -8.6930 C   0  0  0  0  0  0  0  0  0  0  0  0
   25.3281   -0.5444   -9.5797 C   0  0  1  0  0  0  0  0  0  0  0  0
   24.3449    0.2202   -8.8959 N   0  0  0  0  0  0  0  0  0  0  0  0
   23.1218    0.0422   -9.6359 C   0  0  0  0  0  0  0  0  0  0  0  0
   21.8590    0.5725   -9.5065 C   0  0  0  0  0  0  0  0  0  0  0  0
   20.8265    0.2282  -10.3740 C   0  0  0  0  0  0  0  0  0  0  0  0
   19.5820    0.7603  -10.2347 F   0  0  0  0  0  0  0  0  0  0  0  0
   21.1035   -0.6612  -11.3698 C   0  0  0  0  0  0  0  0  0  0  0  0
   22.3534   -1.2314  -11.5546 C   0  0  0  0  0  0  0  0  0  0  0  0
   23.3360   -0.8518  -10.6640 C   0  0  0  0  0  0  0  0  0  0  0  0
   24.6615   -1.2487  -10.6000 O   0  0  0  0  0  0  0  0  0  0  0  0
  2  1  1  6
  2  3  2  0
  2  4  2  0
  5  2  1  6
  5  6  1  0
  6  7  1  1
  7  8  1  1
  8  9  1  6
  9 10  1  1
 10 11  1  0
 11 12  2  0
 12 13  1  0
 13 14  1  0
 13 15  2  0
 15 16  1  0
 16 17  2  0
 17 18  1  0
  9  5  1  0
 17 11  1  0
  9 18  1  0
M  END
$$$$
