_rank19
     RDKit          3D

 18 20  0  0  0  0  0  0  0  0999 V2000
   23.2139   -2.2473   -9.9511 C   0  0  0  0  0  0  0  0  0  0  0  0
   22.3481   -0.7067  -10.0857 S   0  0  1  0  0  6  0  0  0  0  0  0
   20.8800   -0.9857   -9.9952 O   0  0  0  0  0  0  0  0  0  0  0  0
   22.7033    0.2423   -8.9995 O   0  0  0  0  0  0  0  0  0  0  0  0
   22.7313    0.0246  -11.6525 C   0  0  2  0  0  0  0  0  0  0  0  0
   22.5125   -0.9462  -12.7938 C   0  0  0  0  0  0  0  0  0  0  0  0
   23.3152   -0.3188  -13.9099 C   0  0  0  0  0  0  0  0  0  0  0  0
   24.3613    0.5624  -13.2321 C   0  0  0  0  0  0  0  0  0  0  0  0
   24.2500    0.2080  -11.7735 C   0  0  1  0  0  0  0  0  0  0  0  0
   24.7545    1.1983  -10.8882 N   0  0  0  0  0  0  0  0  0  0  0  0
   25.6212    0.5031   -9.9713 C   0  0  0  0  0  0  0  0  0  0  0  0
   26.3361    0.9035   -8.8663 C   0  0  0  0  0  0  0  0  0  0  0  0
   27.1167    0.0127   -8.1354 C   0  0  0  0  0  0  0  0  0  0  0  0
   27.8189    0.4222   -7.0442 F   0  0  0  0  0  0  0  0  0  0  0  0
   27.1548   -1.2860   -8.5492 C   0  0  0  0  0  0  0  0  0  0  0  0
   26.4586   -1.7534   -9.6531 C   0  0  0  0  0  0  0  0  0  0  0  0
   25.7027   -0.8242  -10.3371 C   0  0  0  0  0  0  0  0  0  0  0  0
   24.9120   -0.9945  -11.4616 O   0  0  0  0  0  0  0  0  0  0  0  0
  2  1  1  1
  2  3  2  0
  2  4  2  0
  5  2  1  1
  5  6  1  0
  6  7  1  1
  7  8  1  1
  8  9  1  6
  9 10  1  1
 10 11  1  0
 11 12  2  0
 12 13  1  0
 13 14  1  0
 13 15  2  0
 15 16  1  0
 16 17  2  0
 17 18  1  0
  9  5  1  0
 17 11  1  0
  9 18  1  0
M  END
$$$$
