_rank2
     RDKit          3D

 18 20  0  0  0  0  0  0  0  0999 V2000
   27.2817    0.6221   -8.0017 C   0  0  0  0  0  0  0  0  0  0  0  0
   26.0713   -0.2274   -8.9786 S   0  0  1  0  0  6  0  0  0  0  0  0
   25.9077   -1.6082   -8.4237 O   0  0  0  0  0  0  0  0  0  0  0  0
   24.7447    0.4403   -8.9478 O   0  0  0  0  0  0  0  0  0  0  0  0
   26.6480   -0.3100  -10.6510 C   0  0  2  0  0  0  0  0  0  0  0  0
   27.2439    1.0059  -11.1051 C   0  0  0  0  0  0  0  0  0  0  0  0
   27.2217    0.8684  -12.6099 C   0  0  0  0  0  0  0  0  0  0  0  0
   26.1387   -0.1610  -12.9225 C   0  0  0  0  0  0  0  0  0  0  0  0
   25.4467   -0.3776  -11.6034 C   0  0  1  0  0  0  0  0  0  0  0  0
   24.7389   -1.6058  -11.5061 N   0  0  0  0  0  0  0  0  0  0  0  0
   23.4292   -1.2680  -11.0100 C   0  0  0  0  0  0  0  0  0  0  0  0
   22.3355   -2.0224  -10.6537 C   0  0  0  0  0  0  0  0  0  0  0  0
   21.1598   -1.4375  -10.1926 C   0  0  0  0  0  0  0  0  0  0  0  0
   20.0853   -2.1956   -9.8434 F   0  0  0  0  0  0  0  0  0  0  0  0
   21.1199   -0.0775  -10.1021 C   0  0  0  0  0  0  0  0  0  0  0  0
   22.1862    0.7393  -10.4450 C   0  0  0  0  0  0  0  0  0  0  0  0
   23.3239    0.1023  -10.8951 C   0  0  0  0  0  0  0  0  0  0  0  0
   24.5298    0.6476  -11.3041 O   0  0  0  0  0  0  0  0  0  0  0  0
  2  1  1  1
  2  3  2  0
  2  4  2  0
  5  2  1  1
  5  6  1  0
  6  7  1  1
  7  8  1  1
  8  9  1  6
  9 10  1  6
 10 11  1  0
 11 12  2  0
 12 13  1  0
 13 14  1  0
 13 15  2  0
 15 16  1  0
 16 17  2  0
 17 18  1  0
  9  5  1  0
 17 11  1  0
  9 18  1  0
M  END
$$$$
