_rank12
     RDKit          3D

 18 20  0  0  0  0  0  0  0  0999 V2000
   21.1343   -1.0592  -10.0613 C   0  0  0  0  0  0  0  0  0  0  0  0
   22.8647   -0.6844   -9.9802 S   0  0  1  0  0  6  0  0  0  0  0  0
   23.0803    0.2908   -8.8649 O   0  0  0  0  0  0  0  0  0  0  0  0
   23.6948   -1.8856   -9.7072 O   0  0  0  0  0  0  0  0  0  0  0  0
   23.3622    0.0352  -11.5200 C   0  0  2  0  0  0  0  0  0  0  0  0
   23.2340   -0.9463  -12.6660 C   0  0  0  0  0  0  0  0  0  0  0  0
   24.1162   -0.3248  -13.7239 C   0  0  0  0  0  0  0  0  0  0  0  0
   25.1047    0.5669  -12.9769 C   0  0  0  0  0  0  0  0  0  0  0  0
   24.8850    0.2245  -11.5277 C   0  0  1  0  0  0  0  0  0  0  0  0
   25.3174    1.2245  -10.6156 N   0  0  0  0  0  0  0  0  0  0  0  0
   26.1151    0.5411   -9.6298 C   0  0  0  0  0  0  0  0  0  0  0  0
   26.7430    0.9542   -8.4777 C   0  0  0  0  0  0  0  0  0  0  0  0
   27.4696    0.0732   -7.6820 C   0  0  0  0  0  0  0  0  0  0  0  0
   28.0858    0.4952   -6.5447 F   0  0  0  0  0  0  0  0  0  0  0  0
   27.5439   -1.2288   -8.0803 C   0  0  0  0  0  0  0  0  0  0  0  0
   26.9348   -1.7087   -9.2294 C   0  0  0  0  0  0  0  0  0  0  0  0
   26.2291   -0.7888   -9.9767 C   0  0  0  0  0  0  0  0  0  0  0  0
   25.5262   -0.9723  -11.1562 O   0  0  0  0  0  0  0  0  0  0  0  0
  2  1  1  6
  2  3  2  0
  2  4  2  0
  5  2  1  1
  5  6  1  0
  6  7  1  1
  7  8  1  1
  8  9  1  6
  9 10  1  1
 10 11  1  0
 11 12  2  0
 12 13  1  0
 13 14  1  0
 13 15  2  0
 15 16  1  0
 16 17  2  0
 17 18  1  0
  9  5  1  0
 17 11  1  0
  9 18  1  0
M  END
$$$$
