_rank18
     RDKit          3D

 18 20  0  0  0  0  0  0  0  0999 V2000
   21.7015    1.6239   -9.2283 C   0  0  0  0  0  0  0  0  0  0  0  0
   21.6880   -0.1446   -9.3430 S   0  0  1  0  0  6  0  0  0  0  0  0
   22.8657   -0.6716   -8.5836 O   0  0  0  0  0  0  0  0  0  0  0  0
   20.4600   -0.7433   -8.7599 O   0  0  0  0  0  0  0  0  0  0  0  0
   21.8115   -0.6035  -11.0491 C   0  0  2  0  0  0  0  0  0  0  0  0
   21.2710   -1.9963  -11.2965 C   0  0  0  0  0  0  0  0  0  0  0  0
   21.8853   -2.3487  -12.6315 C   0  0  0  0  0  0  0  0  0  0  0  0
   23.1281   -1.4729  -12.7672 C   0  0  0  0  0  0  0  0  0  0  0  0
   23.2838   -0.8438  -11.4087 C   0  0  1  0  0  0  0  0  0  0  0  0
   24.0522    0.3514  -11.3993 N   0  0  0  0  0  0  0  0  0  0  0  0
   25.0167    0.1920  -10.3412 C   0  0  0  0  0  0  0  0  0  0  0  0
   25.9778    1.0220   -9.8123 C   0  0  0  0  0  0  0  0  0  0  0  0
   26.8015    0.6171   -8.7660 C   0  0  0  0  0  0  0  0  0  0  0  0
   27.7483    1.4483   -8.2522 F   0  0  0  0  0  0  0  0  0  0  0  0
   26.6282   -0.6419   -8.2718 C   0  0  0  0  0  0  0  0  0  0  0  0
   25.6791   -1.5267   -8.7596 C   0  0  0  0  0  0  0  0  0  0  0  0
   24.8927   -1.0689   -9.7964 C   0  0  0  0  0  0  0  0  0  0  0  0
   23.8761   -1.7178  -10.4776 O   0  0  0  0  0  0  0  0  0  0  0  0
  2  1  1  6
  2  3  2  0
  2  4  2  0
  5  2  1  1
  5  6  1  0
  6  7  1  1
  7  8  1  1
  8  9  1  6
  9 10  1  6
 10 11  1  0
 11 12  2  0
 12 13  1  0
 13 14  1  0
 13 15  2  0
 15 16  1  0
 16 17  2  0
 17 18  1  0
  9  5  1  0
 17 11  1  0
  9 18  1  0
M  END
$$$$
