_rank4
     RDKit          3D

 18 20  0  0  0  0  0  0  0  0999 V2000
   27.6639   -1.2611   -8.3940 C   0  0  0  0  0  0  0  0  0  0  0  0
   26.2475   -0.4861   -9.1250 S   0  0  1  0  0  6  0  0  0  0  0  0
   25.1079   -1.4561   -9.0793 O   0  0  0  0  0  0  0  0  0  0  0  0
   25.8341    0.7430   -8.4006 O   0  0  0  0  0  0  0  0  0  0  0  0
   26.6287   -0.0767  -10.8053 C   0  0  2  0  0  0  0  0  0  0  0  0
   27.1342    1.3447  -10.9362 C   0  0  0  0  0  0  0  0  0  0  0  0
   26.9415    1.6218  -12.4092 C   0  0  0  0  0  0  0  0  0  0  0  0
   25.8561    0.6573  -12.8804 C   0  0  0  0  0  0  0  0  0  0  0  0
   25.3273    0.0504  -11.6085 C   0  0  1  0  0  0  0  0  0  0  0  0
   24.6670   -1.1957  -11.7825 N   0  0  0  0  0  0  0  0  0  0  0  0
   23.4154   -1.0806  -11.0785 C   0  0  0  0  0  0  0  0  0  0  0  0
   22.3899   -1.9640  -10.8333 C   0  0  0  0  0  0  0  0  0  0  0  0
   21.2609   -1.5944  -10.1081 C   0  0  0  0  0  0  0  0  0  0  0  0
   20.2537   -2.4784   -9.8729 F   0  0  0  0  0  0  0  0  0  0  0  0
   21.1971   -0.3151   -9.6403 C   0  0  0  0  0  0  0  0  0  0  0  0
   22.1954    0.6231   -9.8524 C   0  0  0  0  0  0  0  0  0  0  0  0
   23.2892    0.1982  -10.5776 C   0  0  0  0  0  0  0  0  0  0  0  0
   24.4253    0.9015  -10.9426 O   0  0  0  0  0  0  0  0  0  0  0  0
  2  1  1  1
  2  3  2  0
  2  4  2  0
  5  2  1  1
  5  6  1  0
  6  7  1  1
  7  8  1  1
  8  9  1  6
  9 10  1  6
 10 11  1  0
 11 12  2  0
 12 13  1  0
 13 14  1  0
 13 15  2  0
 15 16  1  0
 16 17  2  0
 17 18  1  0
  9  5  1  0
 17 11  1  0
  9 18  1  0
M  END
$$$$
