_rank10
     RDKit          3D

 18 20  0  0  0  0  0  0  0  0999 V2000
   24.8078   -0.8243   -8.2558 C   0  0  0  0  0  0  0  0  0  0  0  0
   26.1696    0.2384   -8.6528 S   0  0  1  0  0  6  0  0  0  0  0  0
   25.6409    1.6269   -8.8374 O   0  0  0  0  0  0  0  0  0  0  0  0
   27.1941    0.2759   -7.5779 O   0  0  0  0  0  0  0  0  0  0  0  0
   26.9152   -0.3316  -10.1546 C   0  0  2  0  0  0  0  0  0  0  0  0
   27.6219    0.7873  -10.8906 C   0  0  0  0  0  0  0  0  0  0  0  0
   27.7521    0.2238  -12.2868 C   0  0  0  0  0  0  0  0  0  0  0  0
   26.6575   -0.8319  -12.4184 C   0  0  0  0  0  0  0  0  0  0  0  0
   25.8196   -0.6478  -11.1815 C   0  0  1  0  0  0  0  0  0  0  0  0
   25.0439   -1.7831  -10.8231 N   0  0  0  0  0  0  0  0  0  0  0  0
   23.7080   -1.2931  -10.5984 C   0  0  0  0  0  0  0  0  0  0  0  0
   22.5458   -1.8931  -10.1723 C   0  0  0  0  0  0  0  0  0  0  0  0
   21.3591   -1.1789  -10.0354 C   0  0  0  0  0  0  0  0  0  0  0  0
   20.2166   -1.7850   -9.6128 F   0  0  0  0  0  0  0  0  0  0  0  0
   21.3790    0.1503  -10.3391 C   0  0  0  0  0  0  0  0  0  0  0  0
   22.5157    0.8145  -10.7732 C   0  0  0  0  0  0  0  0  0  0  0  0
   23.6608    0.0542  -10.8893 C   0  0  0  0  0  0  0  0  0  0  0  0
   24.9294    0.4368  -11.2933 O   0  0  0  0  0  0  0  0  0  0  0  0
  2  1  1  1
  2  3  2  0
  2  4  2  0
  5  2  1  1
  5  6  1  0
  6  7  1  1
  7  8  1  1
  8  9  1  6
  9 10  1  1
 10 11  1  0
 11 12  2  0
 12 13  1  0
 13 14  1  0
 13 15  2  0
 15 16  1  0
 16 17  2  0
 17 18  1  0
  9  5  1  0
 17 11  1  0
  9 18  1  0
M  END
$$$$
