_rank6
     RDKit          3D

 18 20  0  0  0  0  0  0  0  0999 V2000
   25.6585   -1.9059   -8.6255 C   0  0  0  0  0  0  0  0  0  0  0  0
   26.2937   -0.2830   -8.9480 S   0  0  1  0  0  6  0  0  0  0  0  0
   25.2038    0.7077   -8.6799 O   0  0  0  0  0  0  0  0  0  0  0  0
   27.4492    0.0587   -8.0793 O   0  0  0  0  0  0  0  0  0  0  0  0
   26.7896   -0.1949  -10.6458 C   0  0  2  0  0  0  0  0  0  0  0  0
   27.2892    1.1864  -11.0139 C   0  0  0  0  0  0  0  0  0  0  0  0
   27.1992    1.1711  -12.5223 C   0  0  0  0  0  0  0  0  0  0  0  0
   26.1598    0.1091  -12.8712 C   0  0  0  0  0  0  0  0  0  0  0  0
   25.5476   -0.2548  -11.5451 C   0  0  1  0  0  0  0  0  0  0  0  0
   24.9137   -1.5261  -11.5197 N   0  0  0  0  0  0  0  0  0  0  0  0
   23.6141   -1.3074  -10.9380 C   0  0  0  0  0  0  0  0  0  0  0  0
   22.5824   -2.1511  -10.5973 C   0  0  0  0  0  0  0  0  0  0  0  0
   21.4010   -1.6757  -10.0356 C   0  0  0  0  0  0  0  0  0  0  0  0
   20.3884   -2.5215   -9.7033 F   0  0  0  0  0  0  0  0  0  0  0  0
   21.2915   -0.3323   -9.8290 C   0  0  0  0  0  0  0  0  0  0  0  0
   22.2930    0.5708  -10.1498 C   0  0  0  0  0  0  0  0  0  0  0  0
   23.4398    0.0405  -10.7032 C   0  0  0  0  0  0  0  0  0  0  0  0
   24.5921    0.6870  -11.1190 O   0  0  0  0  0  0  0  0  0  0  0  0
  2  1  1  1
  2  3  2  0
  2  4  2  0
  5  2  1  1
  5  6  1  0
  6  7  1  1
  7  8  1  1
  8  9  1  6
  9 10  1  6
 10 11  1  0
 11 12  2  0
 12 13  1  0
 13 14  1  0
 13 15  2  0
 15 16  1  0
 16 17  2  0
 17 18  1  0
  9  5  1  0
 17 11  1  0
  9 18  1  0
M  END
$$$$
