_rank14
     RDKit          3D

 18 20  0  0  0  0  0  0  0  0999 V2000
   24.7174    0.1221   -8.0437 C   0  0  0  0  0  0  0  0  0  0  0  0
   26.2943    0.6006   -8.6963 S   0  0  1  0  0  6  0  0  0  0  0  0
   26.0671    1.6231   -9.7659 O   0  0  0  0  0  0  0  0  0  0  0  0
   27.1778    1.2027   -7.6651 O   0  0  0  0  0  0  0  0  0  0  0  0
   27.0823   -0.8296   -9.3817 C   0  0  2  0  0  0  0  0  0  0  0  0
   28.1427   -0.4548  -10.3956 C   0  0  0  0  0  0  0  0  0  0  0  0
   28.3277   -1.7444  -11.1614 C   0  0  0  0  0  0  0  0  0  0  0  0
   27.0357   -2.5351  -10.9726 C   0  0  0  0  0  0  0  0  0  0  0  0
   26.1014   -1.5585  -10.3099 C   0  0  1  0  0  0  0  0  0  0  0  0
   25.0250   -2.1611   -9.6049 N   0  0  0  0  0  0  0  0  0  0  0  0
   23.8347   -1.4788  -10.0441 C   0  0  0  0  0  0  0  0  0  0  0  0
   22.5112   -1.5683   -9.6799 C   0  0  0  0  0  0  0  0  0  0  0  0
   21.5321   -0.7766  -10.2729 C   0  0  0  0  0  0  0  0  0  0  0  0
   20.2264   -0.8754   -9.9030 F   0  0  0  0  0  0  0  0  0  0  0  0
   21.9248    0.1029  -11.2381 C   0  0  0  0  0  0  0  0  0  0  0  0
   23.2410    0.2419  -11.6505 C   0  0  0  0  0  0  0  0  0  0  0  0
   24.1658   -0.5694  -11.0267 C   0  0  0  0  0  0  0  0  0  0  0  0
   25.5340   -0.6529  -11.2262 O   0  0  0  0  0  0  0  0  0  0  0  0
  2  1  1  1
  2  3  2  0
  2  4  2  0
  5  2  1  6
  5  6  1  0
  6  7  1  1
  7  8  1  1
  8  9  1  6
  9 10  1  1
 10 11  1  0
 11 12  2  0
 12 13  1  0
 13 14  1  0
 13 15  2  0
 15 16  1  0
 16 17  2  0
 17 18  1  0
  9  5  1  0
 17 11  1  0
  9 18  1  0
M  END
$$$$
