_rank17
     RDKit          3D

 24 26  0  0  0  0  0  0  0  0999 V2000
   28.7155   -1.3615   -9.2098 C   0  0  0  0  0  0  0  0  0  0  0  0
   27.5021   -0.2877   -8.4795 S   0  0  2  0  0  6  0  0  0  0  0  0
   28.0596    1.0775   -8.3763 O   0  0  0  0  0  0  0  0  0  0  0  0
   27.2880   -0.8163   -7.0715 O   0  0  0  0  0  0  0  0  0  0  0  0
   25.9912   -0.3597   -9.3754 C   0  0  0  0  0  0  0  0  0  0  0  0
   24.8247   -0.7834   -8.7404 C   0  0  0  0  0  0  0  0  0  0  0  0
   23.6424   -0.8328   -9.4423 C   0  0  0  0  0  0  0  0  0  0  0  0
   23.5593   -0.4761  -10.7682 C   0  0  0  0  0  0  0  0  0  0  0  0
   22.3829   -0.5152  -11.5013 O   0  0  0  0  0  0  0  0  0  0  0  0
   21.1322   -0.4891  -10.9531 C   0  0  0  0  0  0  0  0  0  0  0  0
   20.5628    0.6753  -10.4898 C   0  0  0  0  0  0  0  0  0  0  0  0
   19.2932    0.6500   -9.9428 C   0  0  0  0  0  0  0  0  0  0  0  0
   18.7521    1.8045   -9.4939 F   0  0  0  0  0  0  0  0  0  0  0  0
   18.5913   -0.5483   -9.8598 C   0  0  0  0  0  0  0  0  0  0  0  0
   19.1729   -1.7073  -10.3271 C   0  0  0  0  0  0  0  0  0  0  0  0
   18.4359   -2.9616  -10.2328 C   0  0  0  0  0  0  0  0  0  0  0  0
   17.8573   -3.9468  -10.1788 N   0  0  0  0  0  0  0  0  0  0  0  0
   20.4359   -1.6671  -10.8688 C   0  0  0  0  0  0  0  0  0  0  0  0
   24.7448   -0.0546  -11.3828 C   0  0  0  0  0  0  0  0  0  0  0  0
   25.9306   -0.0000  -10.6956 C   0  0  0  0  0  0  0  0  0  0  0  0
   27.0241    0.4821  -11.5973 C   0  0  2  0  0  0  0  0  0  0  0  0
   27.9437    1.2855  -10.9742 O   0  0  0  0  0  0  0  0  0  0  0  0
   26.2097    1.2678  -12.6360 C   0  0  0  0  0  0  0  0  0  0  0  0
   25.0093    0.3852  -12.7730 C   0  0  0  0  0  0  0  0  0  0  0  0
  1  2  1  1
  2  3  2  0
  2  4  2  0
  2  5  1  6
  5  6  2  0
  6  7  1  0
  7  8  2  0
  8  9  1  0
  9 10  1  0
 10 11  2  0
 11 12  1  0
 12 13  1  0
 12 14  2  0
 14 15  1  0
 15 16  1  0
 16 17  3  0
 15 18  2  0
  8 19  1  0
 19 20  2  0
 20 21  1  0
 21 22  1  1
 21 23  1  0
 23 24  1  1
 20  5  1  0
 18 10  1  0
 24 19  1  1
M  END
$$$$
