_rank19
     RDKit          3D

 24 26  0  0  0  0  0  0  0  0999 V2000
   28.7648   -1.7192   -9.5354 C   0  0  0  0  0  0  0  0  0  0  0  0
   27.7643   -0.4691   -8.7641 S   0  0  2  0  0  6  0  0  0  0  0  0
   28.5236    0.7982   -8.7118 O   0  0  0  0  0  0  0  0  0  0  0  0
   27.5467   -0.9465   -7.3385 O   0  0  0  0  0  0  0  0  0  0  0  0
   26.2154   -0.3225   -9.5827 C   0  0  0  0  0  0  0  0  0  0  0  0
   25.0318   -0.5280   -8.8753 C   0  0  0  0  0  0  0  0  0  0  0  0
   23.8208   -0.4064   -9.5169 C   0  0  0  0  0  0  0  0  0  0  0  0
   23.7248   -0.0854  -10.8510 C   0  0  0  0  0  0  0  0  0  0  0  0
   22.5196    0.0443  -11.5245 O   0  0  0  0  0  0  0  0  0  0  0  0
   21.3190   -0.3986  -11.0476 C   0  0  0  0  0  0  0  0  0  0  0  0
   20.9464   -1.7214  -11.1245 C   0  0  0  0  0  0  0  0  0  0  0  0
   19.7196   -2.1208  -10.6272 C   0  0  0  0  0  0  0  0  0  0  0  0
   19.3731   -3.4245  -10.7124 F   0  0  0  0  0  0  0  0  0  0  0  0
   18.8623   -1.1893  -10.0501 C   0  0  0  0  0  0  0  0  0  0  0  0
   19.2472    0.1323   -9.9794 C   0  0  0  0  0  0  0  0  0  0  0  0
   18.3432    1.1057   -9.3789 C   0  0  0  0  0  0  0  0  0  0  0  0
   17.6187    1.8570   -8.9111 N   0  0  0  0  0  0  0  0  0  0  0  0
   20.4701    0.5149  -10.4778 C   0  0  0  0  0  0  0  0  0  0  0  0
   24.9279    0.1155  -11.5389 C   0  0  0  0  0  0  0  0  0  0  0  0
   26.1423   -0.0020  -10.9123 C   0  0  0  0  0  0  0  0  0  0  0  0
   27.2490    0.2642  -11.8848 C   0  0  2  0  0  0  0  0  0  0  0  0
   28.3189    0.9264  -11.3407 O   0  0  0  0  0  0  0  0  0  0  0  0
   26.5174    1.1375  -12.9151 C   0  0  0  0  0  0  0  0  0  0  0  0
   25.1844    0.4594  -12.9573 C   0  0  0  0  0  0  0  0  0  0  0  0
  1  2  1  1
  2  3  2  0
  2  4  2  0
  2  5  1  6
  5  6  2  0
  6  7  1  0
  7  8  2  0
  8  9  1  0
  9 10  1  0
 10 11  2  0
 11 12  1  0
 12 13  1  0
 12 14  2  0
 14 15  1  0
 15 16  1  0
 16 17  3  0
 15 18  2  0
  8 19  1  0
 19 20  2  0
 20 21  1  0
 21 22  1  1
 21 23  1  0
 23 24  1  1
 20  5  1  0
 18 10  1  0
 24 19  1  1
M  END
$$$$
