_rank8
     RDKit          3D

 24 26  0  0  0  0  0  0  0  0999 V2000
   28.5149    1.1386   -8.8657 C   0  0  0  0  0  0  0  0  0  0  0  0
   27.7012   -0.4414   -8.8547 S   0  0  2  0  0  6  0  0  0  0  0  0
   27.5614   -0.9070   -7.4587 O   0  0  0  0  0  0  0  0  0  0  0  0
   28.6457   -1.3888   -9.5745 O   0  0  0  0  0  0  0  0  0  0  0  0
   26.1731   -0.3576   -9.7198 C   0  0  0  0  0  0  0  0  0  0  0  0
   24.9811   -0.6465   -9.0570 C   0  0  0  0  0  0  0  0  0  0  0  0
   23.7860   -0.5741   -9.7349 C   0  0  0  0  0  0  0  0  0  0  0  0
   23.7143   -0.2230  -11.0629 C   0  0  0  0  0  0  0  0  0  0  0  0
   22.5255   -0.1413  -11.7722 O   0  0  0  0  0  0  0  0  0  0  0  0
   21.3041   -0.4919  -11.2717 C   0  0  0  0  0  0  0  0  0  0  0  0
   20.8044   -1.7685  -11.3943 C   0  0  0  0  0  0  0  0  0  0  0  0
   19.5618   -2.0742  -10.8705 C   0  0  0  0  0  0  0  0  0  0  0  0
   19.0895   -3.3340  -11.0014 F   0  0  0  0  0  0  0  0  0  0  0  0
   18.8167   -1.0952  -10.2208 C   0  0  0  0  0  0  0  0  0  0  0  0
   19.3284    0.1794  -10.1050 C   0  0  0  0  0  0  0  0  0  0  0  0
   18.5417    1.2034   -9.4284 C   0  0  0  0  0  0  0  0  0  0  0  0
   17.9355    2.0042   -8.8812 N   0  0  0  0  0  0  0  0  0  0  0  0
   20.5655    0.4689  -10.6304 C   0  0  0  0  0  0  0  0  0  0  0  0
   24.9254    0.0618  -11.7056 C   0  0  0  0  0  0  0  0  0  0  0  0
   26.1242   -0.0060  -11.0425 C   0  0  0  0  0  0  0  0  0  0  0  0
   27.2444    0.3463  -11.9712 C   0  0  2  0  0  0  0  0  0  0  0  0
   28.2583    1.0512  -11.3758 O   0  0  0  0  0  0  0  0  0  0  0  0
   26.4982    1.2058  -13.0027 C   0  0  0  0  0  0  0  0  0  0  0  0
   25.2069    0.4572  -13.1057 C   0  0  0  0  0  0  0  0  0  0  0  0
  1  2  1  1
  2  3  2  0
  2  4  2  0
  2  5  1  6
  5  6  2  0
  6  7  1  0
  7  8  2  0
  8  9  1  0
  9 10  1  0
 10 11  2  0
 11 12  1  0
 12 13  1  0
 12 14  2  0
 14 15  1  0
 15 16  1  0
 16 17  3  0
 15 18  2  0
  8 19  1  0
 19 20  2  0
 20 21  1  0
 21 22  1  1
 21 23  1  0
 23 24  1  1
 20  5  1  0
 18 10  1  0
 24 19  1  1
M  END
$$$$
