_rank20
     RDKit          3D

 24 26  0  0  0  0  0  0  0  0999 V2000
   28.4421   -2.4357   -9.8261 C   0  0  0  0  0  0  0  0  0  0  0  0
   28.0504   -0.9034   -9.0154 S   0  0  2  0  0  6  0  0  0  0  0  0
   29.1235    0.0773   -9.2836 O   0  0  0  0  0  0  0  0  0  0  0  0
   28.0603   -1.2171   -7.5290 O   0  0  0  0  0  0  0  0  0  0  0  0
   26.4544   -0.3406   -9.4914 C   0  0  0  0  0  0  0  0  0  0  0  0
   25.3841   -0.4512   -8.6049 C   0  0  0  0  0  0  0  0  0  0  0  0
   24.1374   -0.0043   -8.9778 C   0  0  0  0  0  0  0  0  0  0  0  0
   23.8960    0.5572  -10.2100 C   0  0  0  0  0  0  0  0  0  0  0  0
   22.6515    1.0167  -10.6138 O   0  0  0  0  0  0  0  0  0  0  0  0
   21.4876    0.3170  -10.4684 C   0  0  0  0  0  0  0  0  0  0  0  0
   21.4746   -1.0464  -10.2795 C   0  0  0  0  0  0  0  0  0  0  0  0
   20.2698   -1.7098  -10.1376 C   0  0  0  0  0  0  0  0  0  0  0  0
   20.2791   -3.0488   -9.9527 F   0  0  0  0  0  0  0  0  0  0  0  0
   19.0725   -1.0030  -10.1855 C   0  0  0  0  0  0  0  0  0  0  0  0
   19.0992    0.3619  -10.3754 C   0  0  0  0  0  0  0  0  0  0  0  0
   17.8418    1.0977  -10.4306 C   0  0  0  0  0  0  0  0  0  0  0  0
   16.8650    1.6905  -10.4818 N   0  0  0  0  0  0  0  0  0  0  0  0
   20.3046    1.0084  -10.5148 C   0  0  0  0  0  0  0  0  0  0  0  0
   24.9873    0.6565  -11.0819 C   0  0  0  0  0  0  0  0  0  0  0  0
   26.2358    0.2154  -10.7238 C   0  0  0  0  0  0  0  0  0  0  0  0
   27.2017    0.4450  -11.8443 C   0  0  2  0  0  0  0  0  0  0  0  0
   28.4593    0.7991  -11.4295 O   0  0  0  0  0  0  0  0  0  0  0  0
   26.5110    1.6019  -12.5818 C   0  0  0  0  0  0  0  0  0  0  0  0
   25.0772    1.1917  -12.4608 C   0  0  0  0  0  0  0  0  0  0  0  0
  1  2  1  1
  2  3  2  0
  2  4  2  0
  2  5  1  6
  5  6  2  0
  6  7  1  0
  7  8  2  0
  8  9  1  0
  9 10  1  0
 10 11  2  0
 11 12  1  0
 12 13  1  0
 12 14  2  0
 14 15  1  0
 15 16  1  0
 16 17  3  0
 15 18  2  0
  8 19  1  0
 19 20  2  0
 20 21  1  0
 21 22  1  1
 21 23  1  0
 23 24  1  1
 20  5  1  0
 18 10  1  0
 24 19  1  1
M  END
$$$$
