_rank18
     RDKit          3D

 24 26  0  0  0  0  0  0  0  0999 V2000
   28.8314   -0.8081   -9.0889 C   0  0  0  0  0  0  0  0  0  0  0  0
   27.5679    0.3778   -8.6942 S   0  0  2  0  0  6  0  0  0  0  0  0
   28.0759    1.7390   -8.9666 O   0  0  0  0  0  0  0  0  0  0  0  0
   27.3449    0.2496   -7.1971 O   0  0  0  0  0  0  0  0  0  0  0  0
   26.0779    0.0039   -9.5492 C   0  0  0  0  0  0  0  0  0  0  0  0
   24.8939   -0.1805   -8.8368 C   0  0  0  0  0  0  0  0  0  0  0  0
   23.7281   -0.4669   -9.5090 C   0  0  0  0  0  0  0  0  0  0  0  0
   23.6785   -0.5818  -10.8788 C   0  0  0  0  0  0  0  0  0  0  0  0
   22.5195   -0.8690  -11.5837 O   0  0  0  0  0  0  0  0  0  0  0  0
   21.2582   -0.7518  -11.0730 C   0  0  0  0  0  0  0  0  0  0  0  0
   20.9856    0.0316   -9.9746 C   0  0  0  0  0  0  0  0  0  0  0  0
   19.6917    0.1177   -9.4950 C   0  0  0  0  0  0  0  0  0  0  0  0
   19.4453    0.8928   -8.4152 F   0  0  0  0  0  0  0  0  0  0  0  0
   18.6662   -0.5850  -10.1196 C   0  0  0  0  0  0  0  0  0  0  0  0
   18.9524   -1.3661  -11.2185 C   0  0  0  0  0  0  0  0  0  0  0  0
   17.8757   -2.1052  -11.8664 C   0  0  0  0  0  0  0  0  0  0  0  0
   17.0403   -2.7022  -12.3704 N   0  0  0  0  0  0  0  0  0  0  0  0
   20.2437   -1.4421  -11.6846 C   0  0  0  0  0  0  0  0  0  0  0  0
   24.8812   -0.3924  -11.5708 C   0  0  0  0  0  0  0  0  0  0  0  0
   26.0509   -0.1062  -10.9141 C   0  0  0  0  0  0  0  0  0  0  0  0
   27.1686    0.0425  -11.8989 C   0  0  2  0  0  0  0  0  0  0  0  0
   28.0790    1.0109  -11.5633 O   0  0  0  0  0  0  0  0  0  0  0  0
   26.3844    0.4277  -13.1622 C   0  0  0  0  0  0  0  0  0  0  0  0
   25.1813   -0.4505  -13.0208 C   0  0  0  0  0  0  0  0  0  0  0  0
  1  2  1  1
  2  3  2  0
  2  4  2  0
  2  5  1  6
  5  6  2  0
  6  7  1  0
  7  8  2  0
  8  9  1  0
  9 10  1  0
 10 11  2  0
 11 12  1  0
 12 13  1  0
 12 14  2  0
 14 15  1  0
 15 16  1  0
 16 17  3  0
 15 18  2  0
  8 19  1  0
 19 20  2  0
 20 21  1  0
 21 22  1  1
 21 23  1  0
 23 24  1  1
 20  5  1  0
 18 10  1  0
 24 19  1  1
M  END
$$$$
