_rank10
     RDKit          3D

 24 26  0  0  0  0  0  0  0  0999 V2000
   28.3951    1.1510   -9.1422 C   0  0  0  0  0  0  0  0  0  0  0  0
   27.5920   -0.4103   -8.8664 S   0  0  2  0  0  6  0  0  0  0  0  0
   27.4269   -0.6225   -7.4128 O   0  0  0  0  0  0  0  0  0  0  0  0
   28.5573   -1.4605   -9.3887 O   0  0  0  0  0  0  0  0  0  0  0  0
   26.0813   -0.4969   -9.7613 C   0  0  0  0  0  0  0  0  0  0  0  0
   24.8951   -0.8054   -9.0968 C   0  0  0  0  0  0  0  0  0  0  0  0
   23.7133   -0.8664   -9.7985 C   0  0  0  0  0  0  0  0  0  0  0  0
   23.6494   -0.6323  -11.1525 C   0  0  0  0  0  0  0  0  0  0  0  0
   22.4740   -0.6862  -11.8863 O   0  0  0  0  0  0  0  0  0  0  0  0
   21.2408   -0.9233  -11.3493 C   0  0  0  0  0  0  0  0  0  0  0  0
   20.6258   -2.1507  -11.4478 C   0  0  0  0  0  0  0  0  0  0  0  0
   19.3762   -2.3411  -10.8873 C   0  0  0  0  0  0  0  0  0  0  0  0
   18.7897   -3.5542  -10.9950 F   0  0  0  0  0  0  0  0  0  0  0  0
   18.7403   -1.2958  -10.2251 C   0  0  0  0  0  0  0  0  0  0  0  0
   19.3668   -0.0715  -10.1337 C   0  0  0  0  0  0  0  0  0  0  0  0
   18.6941    1.0226   -9.4438 C   0  0  0  0  0  0  0  0  0  0  0  0
   18.1488    1.8722   -8.9062 N   0  0  0  0  0  0  0  0  0  0  0  0
   20.6094    0.1032  -10.6955 C   0  0  0  0  0  0  0  0  0  0  0  0
   24.8544   -0.3249  -11.7963 C   0  0  0  0  0  0  0  0  0  0  0  0
   26.0400   -0.2604  -11.1096 C   0  0  0  0  0  0  0  0  0  0  0  0
   27.1565    0.0845  -12.0455 C   0  0  2  0  0  0  0  0  0  0  0  0
   28.1109    0.9000  -11.4946 O   0  0  0  0  0  0  0  0  0  0  0  0
   26.3813    0.8057  -13.1585 C   0  0  0  0  0  0  0  0  0  0  0  0
   25.1418   -0.0301  -13.2198 C   0  0  0  0  0  0  0  0  0  0  0  0
  1  2  1  1
  2  3  2  0
  2  4  2  0
  2  5  1  6
  5  6  2  0
  6  7  1  0
  7  8  2  0
  8  9  1  0
  9 10  1  0
 10 11  2  0
 11 12  1  0
 12 13  1  0
 12 14  2  0
 14 15  1  0
 15 16  1  0
 16 17  3  0
 15 18  2  0
  8 19  1  0
 19 20  2  0
 20 21  1  0
 21 22  1  1
 21 23  1  0
 23 24  1  1
 20  5  1  0
 18 10  1  0
 24 19  1  1
M  END
$$$$
