_rank5
     RDKit          3D

 24 26  0  0  0  0  0  0  0  0999 V2000
   29.0462   -0.4013   -9.7739 C   0  0  0  0  0  0  0  0  0  0  0  0
   27.6064   -0.0092   -8.8085 S   0  0  2  0  0  6  0  0  0  0  0  0
   27.7426    1.3587   -8.2650 O   0  0  0  0  0  0  0  0  0  0  0  0
   27.6227   -0.9827   -7.6425 O   0  0  0  0  0  0  0  0  0  0  0  0
   26.1433   -0.2427   -9.7547 C   0  0  0  0  0  0  0  0  0  0  0  0
   25.0111   -0.7984   -9.1606 C   0  0  0  0  0  0  0  0  0  0  0  0
   23.8654   -0.9743   -9.9018 C   0  0  0  0  0  0  0  0  0  0  0  0
   23.7866   -0.6195  -11.2284 C   0  0  0  0  0  0  0  0  0  0  0  0
   22.6466   -0.7842  -12.0006 O   0  0  0  0  0  0  0  0  0  0  0  0
   21.3815   -0.8826  -11.4955 C   0  0  0  0  0  0  0  0  0  0  0  0
   20.5737   -1.9660  -11.7568 C   0  0  0  0  0  0  0  0  0  0  0  0
   19.2997   -2.0191  -11.2220 C   0  0  0  0  0  0  0  0  0  0  0  0
   18.5226   -3.0921  -11.4905 F   0  0  0  0  0  0  0  0  0  0  0  0
   18.8335   -0.9811  -10.4215 C   0  0  0  0  0  0  0  0  0  0  0  0
   19.6523    0.0983  -10.1678 C   0  0  0  0  0  0  0  0  0  0  0  0
   19.1574    1.1864   -9.3331 C   0  0  0  0  0  0  0  0  0  0  0  0
   18.7562    2.0274   -8.6700 N   0  0  0  0  0  0  0  0  0  0  0  0
   20.9169    0.1375  -10.7060 C   0  0  0  0  0  0  0  0  0  0  0  0
   24.9372   -0.0641  -11.8016 C   0  0  0  0  0  0  0  0  0  0  0  0
   26.0863    0.1174  -11.0749 C   0  0  0  0  0  0  0  0  0  0  0  0
   27.1481    0.7250  -11.9378 C   0  0  2  0  0  0  0  0  0  0  0  0
   27.9513    1.6213  -11.2816 O   0  0  0  0  0  0  0  0  0  0  0  0
   26.2856    1.4224  -13.0005 C   0  0  0  0  0  0  0  0  0  0  0  0
   25.1964    0.4125  -13.1806 C   0  0  0  0  0  0  0  0  0  0  0  0
  1  2  1  1
  2  3  2  0
  2  4  2  0
  2  5  1  6
  5  6  2  0
  6  7  1  0
  7  8  2  0
  8  9  1  0
  9 10  1  0
 10 11  2  0
 11 12  1  0
 12 13  1  0
 12 14  2  0
 14 15  1  0
 15 16  1  0
 16 17  3  0
 15 18  2  0
  8 19  1  0
 19 20  2  0
 20 21  1  0
 21 22  1  1
 21 23  1  0
 23 24  1  1
 20  5  1  0
 18 10  1  0
 24 19  1  1
M  END
$$$$
