_rank6
     RDKit          3D

 24 26  0  0  0  0  0  0  0  0999 V2000
   29.1745   -0.1574   -9.8672 C   0  0  0  0  0  0  0  0  0  0  0  0
   27.7941   -0.1880   -8.7482 S   0  0  2  0  0  6  0  0  0  0  0  0
   27.8635    0.9897   -7.8576 O   0  0  0  0  0  0  0  0  0  0  0  0
   27.9883   -1.4324   -7.8989 O   0  0  0  0  0  0  0  0  0  0  0  0
   26.2803   -0.3059   -9.6343 C   0  0  0  0  0  0  0  0  0  0  0  0
   25.1202   -0.7162   -8.9791 C   0  0  0  0  0  0  0  0  0  0  0  0
   23.9355   -0.8016   -9.6735 C   0  0  0  0  0  0  0  0  0  0  0  0
   23.8438   -0.4945  -11.0112 C   0  0  0  0  0  0  0  0  0  0  0  0
   22.6649   -0.5706  -11.7373 O   0  0  0  0  0  0  0  0  0  0  0  0
   21.4346   -0.7931  -11.1875 C   0  0  0  0  0  0  0  0  0  0  0  0
   20.8226   -2.0248  -11.2426 C   0  0  0  0  0  0  0  0  0  0  0  0
   19.5759   -2.1998  -10.6709 C   0  0  0  0  0  0  0  0  0  0  0  0
   18.9925   -3.4174  -10.7358 F   0  0  0  0  0  0  0  0  0  0  0  0
   18.9397   -1.1348  -10.0412 C   0  0  0  0  0  0  0  0  0  0  0  0
   19.5632    0.0935   -9.9931 C   0  0  0  0  0  0  0  0  0  0  0  0
   18.8902    1.2081   -9.3371 C   0  0  0  0  0  0  0  0  0  0  0  0
   18.3792    2.0869   -8.8129 N   0  0  0  0  0  0  0  0  0  0  0  0
   20.8030    0.2529  -10.5656 C   0  0  0  0  0  0  0  0  0  0  0  0
   25.0231   -0.0855  -11.6460 C   0  0  0  0  0  0  0  0  0  0  0  0
   26.2112    0.0045  -10.9664 C   0  0  0  0  0  0  0  0  0  0  0  0
   27.2967    0.4629  -11.8900 C   0  0  2  0  0  0  0  0  0  0  0  0
   28.2117    1.2965  -11.3008 O   0  0  0  0  0  0  0  0  0  0  0  0
   26.4712    1.2028  -12.9532 C   0  0  0  0  0  0  0  0  0  0  0  0
   25.2781    0.3054  -13.0525 C   0  0  0  0  0  0  0  0  0  0  0  0
  1  2  1  1
  2  3  2  0
  2  4  2  0
  2  5  1  6
  5  6  2  0
  6  7  1  0
  7  8  2  0
  8  9  1  0
  9 10  1  0
 10 11  2  0
 11 12  1  0
 12 13  1  0
 12 14  2  0
 14 15  1  0
 15 16  1  0
 16 17  3  0
 15 18  2  0
  8 19  1  0
 19 20  2  0
 20 21  1  0
 21 22  1  1
 21 23  1  0
 23 24  1  1
 20  5  1  0
 18 10  1  0
 24 19  1  1
M  END
$$$$
