_rank4
     RDKit          3D

 24 26  0  0  0  0  0  0  0  0999 V2000
   27.5838    0.1755   -6.9585 C   0  0  0  0  0  0  0  0  0  0  0  0
   27.7609   -0.4574   -8.6098 S   0  0  2  0  0  6  0  0  0  0  0  0
   28.3555   -1.8095   -8.5515 O   0  0  0  0  0  0  0  0  0  0  0  0
   28.7558    0.4651   -9.2930 O   0  0  0  0  0  0  0  0  0  0  0  0
   26.2238   -0.4061   -9.4615 C   0  0  0  0  0  0  0  0  0  0  0  0
   25.0346   -0.6168   -8.7651 C   0  0  0  0  0  0  0  0  0  0  0  0
   23.8327   -0.5699   -9.4330 C   0  0  0  0  0  0  0  0  0  0  0  0
   23.7513   -0.3199  -10.7831 C   0  0  0  0  0  0  0  0  0  0  0  0
   22.5555   -0.2662  -11.4832 O   0  0  0  0  0  0  0  0  0  0  0  0
   21.3420   -0.6159  -10.9632 C   0  0  0  0  0  0  0  0  0  0  0  0
   20.8366   -1.8905  -11.0833 C   0  0  0  0  0  0  0  0  0  0  0  0
   19.6025   -2.1954  -10.5394 C   0  0  0  0  0  0  0  0  0  0  0  0
   19.1244   -3.4532  -10.6682 F   0  0  0  0  0  0  0  0  0  0  0  0
   18.8716   -1.2176   -9.8720 C   0  0  0  0  0  0  0  0  0  0  0  0
   19.3888    0.0550   -9.7589 C   0  0  0  0  0  0  0  0  0  0  0  0
   18.6169    1.0778   -9.0637 C   0  0  0  0  0  0  0  0  0  0  0  0
   18.0278    1.8861   -8.5088 N   0  0  0  0  0  0  0  0  0  0  0  0
   20.6174    0.3437  -10.3045 C   0  0  0  0  0  0  0  0  0  0  0  0
   24.9598   -0.1121  -11.4594 C   0  0  0  0  0  0  0  0  0  0  0  0
   26.1653   -0.1556  -10.8067 C   0  0  0  0  0  0  0  0  0  0  0  0
   27.2807    0.0996  -11.7722 C   0  0  2  0  0  0  0  0  0  0  0  0
   28.3170    0.8252  -11.2440 O   0  0  0  0  0  0  0  0  0  0  0  0
   26.5398    0.8941  -12.8581 C   0  0  0  0  0  0  0  0  0  0  0  0
   25.2315    0.1688  -12.8888 C   0  0  0  0  0  0  0  0  0  0  0  0
  1  2  1  1
  2  3  2  0
  2  4  2  0
  2  5  1  6
  5  6  2  0
  6  7  1  0
  7  8  2  0
  8  9  1  0
  9 10  1  0
 10 11  2  0
 11 12  1  0
 12 13  1  0
 12 14  2  0
 14 15  1  0
 15 16  1  0
 16 17  3  0
 15 18  2  0
  8 19  1  0
 19 20  2  0
 20 21  1  0
 21 22  1  1
 21 23  1  0
 23 24  1  1
 20  5  1  0
 18 10  1  0
 24 19  1  1
M  END
$$$$
