_rank1
     RDKit          3D

 24 26  0  0  0  0  0  0  0  0999 V2000
   28.4907    1.2943   -8.8104 C   0  0  0  0  0  0  0  0  0  0  0  0
   27.6706   -0.2611   -8.5518 S   0  0  2  0  0  6  0  0  0  0  0  0
   27.4737   -0.4723   -7.1020 O   0  0  0  0  0  0  0  0  0  0  0  0
   28.6389   -1.3184   -9.0542 O   0  0  0  0  0  0  0  0  0  0  0  0
   26.1783   -0.3366   -9.4780 C   0  0  0  0  0  0  0  0  0  0  0  0
   24.9515   -0.3953   -8.8182 C   0  0  0  0  0  0  0  0  0  0  0  0
   23.7849   -0.4480   -9.5456 C   0  0  0  0  0  0  0  0  0  0  0  0
   23.7754   -0.4456  -10.9210 C   0  0  0  0  0  0  0  0  0  0  0  0
   22.6166   -0.4976  -11.6809 O   0  0  0  0  0  0  0  0  0  0  0  0
   21.3709   -0.7292  -11.1711 C   0  0  0  0  0  0  0  0  0  0  0  0
   20.7048   -1.9150  -11.3827 C   0  0  0  0  0  0  0  0  0  0  0  0
   19.4445   -2.1016  -10.8453 C   0  0  0  0  0  0  0  0  0  0  0  0
   18.8077   -3.2736  -11.0647 F   0  0  0  0  0  0  0  0  0  0  0  0
   18.8493   -1.0944  -10.0924 C   0  0  0  0  0  0  0  0  0  0  0  0
   19.5268    0.0884   -9.8881 C   0  0  0  0  0  0  0  0  0  0  0  0
   18.8968    1.1431   -9.1033 C   0  0  0  0  0  0  0  0  0  0  0  0
   18.3903    1.9570   -8.4795 N   0  0  0  0  0  0  0  0  0  0  0  0
   20.7795    0.2599  -10.4283 C   0  0  0  0  0  0  0  0  0  0  0  0
   25.0203   -0.3865  -11.5595 C   0  0  0  0  0  0  0  0  0  0  0  0
   26.1915   -0.3333  -10.8475 C   0  0  0  0  0  0  0  0  0  0  0  0
   27.3586   -0.2782  -11.7835 C   0  0  2  0  0  0  0  0  0  0  0  0
   28.3880    0.5118  -11.3414 O   0  0  0  0  0  0  0  0  0  0  0  0
   26.6930    0.3198  -13.0321 C   0  0  0  0  0  0  0  0  0  0  0  0
   25.3681   -0.3747  -13.0000 C   0  0  0  0  0  0  0  0  0  0  0  0
  1  2  1  1
  2  3  2  0
  2  4  2  0
  2  5  1  6
  5  6  2  0
  6  7  1  0
  7  8  2  0
  8  9  1  0
  9 10  1  0
 10 11  2  0
 11 12  1  0
 12 13  1  0
 12 14  2  0
 14 15  1  0
 15 16  1  0
 16 17  3  0
 15 18  2  0
  8 19  1  0
 19 20  2  0
 20 21  1  0
 21 22  1  1
 21 23  1  0
 23 24  1  1
 20  5  1  0
 18 10  1  0
 24 19  1  1
M  END
$$$$
