_rank9
     RDKit          3D

 24 26  0  0  0  0  0  0  0  0999 V2000
   28.4670    0.9036   -8.6322 C   0  0  0  0  0  0  0  0  0  0  0  0
   27.5403   -0.6128   -8.6509 S   0  0  2  0  0  6  0  0  0  0  0  0
   27.3916   -1.1094   -7.2665 O   0  0  0  0  0  0  0  0  0  0  0  0
   28.4000   -1.6039   -9.4166 O   0  0  0  0  0  0  0  0  0  0  0  0
   26.0072   -0.3922   -9.4825 C   0  0  0  0  0  0  0  0  0  0  0  0
   24.8092   -0.6135   -8.8047 C   0  0  0  0  0  0  0  0  0  0  0  0
   23.6108   -0.4340   -9.4562 C   0  0  0  0  0  0  0  0  0  0  0  0
   23.5413   -0.0387  -10.7719 C   0  0  0  0  0  0  0  0  0  0  0  0
   22.3493    0.1506  -11.4547 O   0  0  0  0  0  0  0  0  0  0  0  0
   21.1155   -0.1394  -10.9457 C   0  0  0  0  0  0  0  0  0  0  0  0
   20.3553    0.8043  -10.2930 C   0  0  0  0  0  0  0  0  0  0  0  0
   19.1118    0.4617   -9.7952 C   0  0  0  0  0  0  0  0  0  0  0  0
   18.3810    1.4034   -9.1576 F   0  0  0  0  0  0  0  0  0  0  0  0
   18.6282   -0.8333   -9.9524 C   0  0  0  0  0  0  0  0  0  0  0  0
   19.3994   -1.7690  -10.6077 C   0  0  0  0  0  0  0  0  0  0  0  0
   18.8911   -3.1263  -10.7651 C   0  0  0  0  0  0  0  0  0  0  0  0
   18.4765   -4.1839  -10.8985 N   0  0  0  0  0  0  0  0  0  0  0  0
   20.6340   -1.4140  -11.0978 C   0  0  0  0  0  0  0  0  0  0  0  0
   24.7584    0.1765  -11.4302 C   0  0  0  0  0  0  0  0  0  0  0  0
   25.9607    0.0018  -10.7934 C   0  0  0  0  0  0  0  0  0  0  0  0
   27.0870    0.2996  -11.7337 C   0  0  2  0  0  0  0  0  0  0  0  0
   28.1602    0.9106  -11.1386 O   0  0  0  0  0  0  0  0  0  0  0  0
   26.3875    1.2418  -12.7249 C   0  0  0  0  0  0  0  0  0  0  0  0
   25.0432    0.5925  -12.8237 C   0  0  0  0  0  0  0  0  0  0  0  0
  1  2  1  1
  2  3  2  0
  2  4  2  0
  2  5  1  6
  5  6  2  0
  6  7  1  0
  7  8  2  0
  8  9  1  0
  9 10  1  0
 10 11  2  0
 11 12  1  0
 12 13  1  0
 12 14  2  0
 14 15  1  0
 15 16  1  0
 16 17  3  0
 15 18  2  0
  8 19  1  0
 19 20  2  0
 20 21  1  0
 21 22  1  1
 21 23  1  0
 23 24  1  1
 20  5  1  0
 18 10  1  0
 24 19  1  1
M  END
$$$$
