_rank13
     RDKit          3D

 24 26  0  0  0  0  0  0  0  0999 V2000
   29.0587   -1.1191   -9.5991 C   0  0  0  0  0  0  0  0  0  0  0  0
   27.7913   -0.2076   -8.7497 S   0  0  2  0  0  6  0  0  0  0  0  0
   28.2641    1.1715   -8.5058 O   0  0  0  0  0  0  0  0  0  0  0  0
   27.6302   -0.8948   -7.4045 O   0  0  0  0  0  0  0  0  0  0  0  0
   26.2754   -0.2800   -9.6372 C   0  0  0  0  0  0  0  0  0  0  0  0
   25.0900   -0.5792   -8.9672 C   0  0  0  0  0  0  0  0  0  0  0  0
   23.9041   -0.6290   -9.6631 C   0  0  0  0  0  0  0  0  0  0  0  0
   23.8355   -0.3925  -11.0163 C   0  0  0  0  0  0  0  0  0  0  0  0
   22.6560   -0.4352  -11.7443 O   0  0  0  0  0  0  0  0  0  0  0  0
   21.4289   -0.7026  -11.2077 C   0  0  0  0  0  0  0  0  0  0  0  0
   20.8462   -1.9460  -11.3026 C   0  0  0  0  0  0  0  0  0  0  0  0
   19.6014   -2.1670  -10.7427 C   0  0  0  0  0  0  0  0  0  0  0  0
   19.0470   -3.3955  -10.8468 F   0  0  0  0  0  0  0  0  0  0  0  0
   18.9377   -1.1365  -10.0848 C   0  0  0  0  0  0  0  0  0  0  0  0
   19.5319    0.1041   -9.9970 C   0  0  0  0  0  0  0  0  0  0  0  0
   18.8301    1.1825   -9.3115 C   0  0  0  0  0  0  0  0  0  0  0  0
   18.2804    2.0182   -8.7568 N   0  0  0  0  0  0  0  0  0  0  0  0
   20.7702    0.3093  -10.5582 C   0  0  0  0  0  0  0  0  0  0  0  0
   25.0399   -0.0946  -11.6658 C   0  0  0  0  0  0  0  0  0  0  0  0
   26.2294   -0.0412  -10.9850 C   0  0  0  0  0  0  0  0  0  0  0  0
   27.3441    0.2954  -11.9260 C   0  0  2  0  0  0  0  0  0  0  0  0
   28.3082    1.1018  -11.3788 O   0  0  0  0  0  0  0  0  0  0  0  0
   26.5696    1.0247  -13.0340 C   0  0  0  0  0  0  0  0  0  0  0  0
   25.3227    0.1997  -13.0903 C   0  0  0  0  0  0  0  0  0  0  0  0
  1  2  1  1
  2  3  2  0
  2  4  2  0
  2  5  1  6
  5  6  2  0
  6  7  1  0
  7  8  2  0
  8  9  1  0
  9 10  1  0
 10 11  2  0
 11 12  1  0
 12 13  1  0
 12 14  2  0
 14 15  1  0
 15 16  1  0
 16 17  3  0
 15 18  2  0
  8 19  1  0
 19 20  2  0
 20 21  1  0
 21 22  1  1
 21 23  1  0
 23 24  1  1
 20  5  1  0
 18 10  1  0
 24 19  1  1
M  END
$$$$
