_rank7
     RDKit          3D

 24 26  0  0  0  0  0  0  0  0999 V2000
   28.4008    1.2153   -8.5588 C   0  0  0  0  0  0  0  0  0  0  0  0
   27.7960   -0.4363   -8.8142 S   0  0  2  0  0  6  0  0  0  0  0  0
   27.7183   -1.1327   -7.5126 O   0  0  0  0  0  0  0  0  0  0  0  0
   28.8533   -1.1294   -9.6565 O   0  0  0  0  0  0  0  0  0  0  0  0
   26.2689   -0.4095   -9.6848 C   0  0  0  0  0  0  0  0  0  0  0  0
   25.0827   -0.7160   -9.0194 C   0  0  0  0  0  0  0  0  0  0  0  0
   23.8883   -0.6882   -9.7017 C   0  0  0  0  0  0  0  0  0  0  0  0
   23.8116   -0.3655  -11.0366 C   0  0  0  0  0  0  0  0  0  0  0  0
   22.6234   -0.3288  -11.7505 O   0  0  0  0  0  0  0  0  0  0  0  0
   21.3990   -0.6281  -11.2244 C   0  0  0  0  0  0  0  0  0  0  0  0
   20.8365   -1.8780  -11.3504 C   0  0  0  0  0  0  0  0  0  0  0  0
   19.5937   -2.1318  -10.8000 C   0  0  0  0  0  0  0  0  0  0  0  0
   19.0591   -3.3660  -10.9347 F   0  0  0  0  0  0  0  0  0  0  0  0
   18.9118   -1.1276  -10.1202 C   0  0  0  0  0  0  0  0  0  0  0  0
   19.4860    0.1198  -10.0013 C   0  0  0  0  0  0  0  0  0  0  0  0
   18.7652    1.1706   -9.2931 C   0  0  0  0  0  0  0  0  0  0  0  0
   18.2034    2.0075   -8.7525 N   0  0  0  0  0  0  0  0  0  0  0  0
   20.7225    0.3577  -10.5535 C   0  0  0  0  0  0  0  0  0  0  0  0
   25.0169   -0.0622  -11.6817 C   0  0  0  0  0  0  0  0  0  0  0  0
   26.2150   -0.0856  -11.0144 C   0  0  0  0  0  0  0  0  0  0  0  0
   27.3286    0.2772  -11.9470 C   0  0  2  0  0  0  0  0  0  0  0  0
   28.3220    1.0198  -11.3631 O   0  0  0  0  0  0  0  0  0  0  0  0
   26.5636    1.0963  -12.9973 C   0  0  0  0  0  0  0  0  0  0  0  0
   25.2924    0.3125  -13.0888 C   0  0  0  0  0  0  0  0  0  0  0  0
  1  2  1  1
  2  3  2  0
  2  4  2  0
  2  5  1  6
  5  6  2  0
  6  7  1  0
  7  8  2  0
  8  9  1  0
  9 10  1  0
 10 11  2  0
 11 12  1  0
 12 13  1  0
 12 14  2  0
 14 15  1  0
 15 16  1  0
 16 17  3  0
 15 18  2  0
  8 19  1  0
 19 20  2  0
 20 21  1  0
 21 22  1  1
 21 23  1  0
 23 24  1  1
 20  5  1  0
 18 10  1  0
 24 19  1  1
M  END
$$$$
