_rank2
     RDKit          3D

 24 26  0  0  0  0  0  0  0  0999 V2000
   28.5030    1.0187   -8.4402 C   0  0  0  0  0  0  0  0  0  0  0  0
   27.7104   -0.5569   -8.6587 S   0  0  2  0  0  6  0  0  0  0  0  0
   27.5863   -1.2254   -7.3461 O   0  0  0  0  0  0  0  0  0  0  0  0
   28.6623   -1.3743   -9.5151 O   0  0  0  0  0  0  0  0  0  0  0  0
   26.1753   -0.3679   -9.4945 C   0  0  0  0  0  0  0  0  0  0  0  0
   24.9787   -0.5370   -8.7996 C   0  0  0  0  0  0  0  0  0  0  0  0
   23.7788   -0.3824   -9.4547 C   0  0  0  0  0  0  0  0  0  0  0  0
   23.7065   -0.0627  -10.7906 C   0  0  0  0  0  0  0  0  0  0  0  0
   22.5130    0.0999  -11.4776 O   0  0  0  0  0  0  0  0  0  0  0  0
   21.2992   -0.3344  -11.0266 C   0  0  0  0  0  0  0  0  0  0  0  0
   20.8643   -1.6245  -11.2295 C   0  0  0  0  0  0  0  0  0  0  0  0
   19.6268   -2.0162  -10.7534 C   0  0  0  0  0  0  0  0  0  0  0  0
   19.2187   -3.2878  -10.9631 F   0  0  0  0  0  0  0  0  0  0  0  0
   18.8214   -1.1102  -10.0708 C   0  0  0  0  0  0  0  0  0  0  0  0
   19.2684    0.1787   -9.8744 C   0  0  0  0  0  0  0  0  0  0  0  0
   18.4186    1.1263   -9.1635 C   0  0  0  0  0  0  0  0  0  0  0  0
   17.7680    1.8805   -8.6013 N   0  0  0  0  0  0  0  0  0  0  0  0
   20.5013    0.5542  -10.3532 C   0  0  0  0  0  0  0  0  0  0  0  0
   24.9223    0.1014  -11.4658 C   0  0  0  0  0  0  0  0  0  0  0  0
   26.1260   -0.0494  -10.8257 C   0  0  0  0  0  0  0  0  0  0  0  0
   27.2504    0.1818  -11.7867 C   0  0  2  0  0  0  0  0  0  0  0  0
   28.3331    0.8144  -11.2327 O   0  0  0  0  0  0  0  0  0  0  0  0
   26.5557    1.0730  -12.8272 C   0  0  0  0  0  0  0  0  0  0  0  0
   25.2041    0.4335  -12.8822 C   0  0  0  0  0  0  0  0  0  0  0  0
  1  2  1  1
  2  3  2  0
  2  4  2  0
  2  5  1  6
  5  6  2  0
  6  7  1  0
  7  8  2  0
  8  9  1  0
  9 10  1  0
 10 11  2  0
 11 12  1  0
 12 13  1  0
 12 14  2  0
 14 15  1  0
 15 16  1  0
 16 17  3  0
 15 18  2  0
  8 19  1  0
 19 20  2  0
 20 21  1  0
 21 22  1  1
 21 23  1  0
 23 24  1  1
 20  5  1  0
 18 10  1  0
 24 19  1  1
M  END
$$$$
