_rank16
     RDKit          3D

 24 26  0  0  0  0  0  0  0  0999 V2000
   28.7702    0.7085   -8.7770 C   0  0  0  0  0  0  0  0  0  0  0  0
   27.6823   -0.6578   -8.4480 S   0  0  2  0  0  6  0  0  0  0  0  0
   27.5339   -0.8207   -6.9863 O   0  0  0  0  0  0  0  0  0  0  0  0
   28.3974   -1.8845   -8.9881 O   0  0  0  0  0  0  0  0  0  0  0  0
   26.1516   -0.4473   -9.2867 C   0  0  0  0  0  0  0  0  0  0  0  0
   24.9592   -0.4267   -8.5647 C   0  0  0  0  0  0  0  0  0  0  0  0
   23.7632   -0.2555   -9.2230 C   0  0  0  0  0  0  0  0  0  0  0  0
   23.6909   -0.1014  -10.5879 C   0  0  0  0  0  0  0  0  0  0  0  0
   22.5013    0.0730  -11.2788 O   0  0  0  0  0  0  0  0  0  0  0  0
   21.3116   -0.4934  -10.9195 C   0  0  0  0  0  0  0  0  0  0  0  0
   21.0115   -1.8054  -11.2078 C   0  0  0  0  0  0  0  0  0  0  0  0
   19.7928   -2.3330  -10.8229 C   0  0  0  0  0  0  0  0  0  0  0  0
   19.5179   -3.6238  -11.1154 F   0  0  0  0  0  0  0  0  0  0  0  0
   18.8706   -1.5413  -10.1458 C   0  0  0  0  0  0  0  0  0  0  0  0
   19.1832   -0.2290   -9.8634 C   0  0  0  0  0  0  0  0  0  0  0  0
   18.2115    0.5984   -9.1588 C   0  0  0  0  0  0  0  0  0  0  0  0
   17.4632    1.2525   -8.5928 N   0  0  0  0  0  0  0  0  0  0  0  0
   20.3990    0.2822  -10.2521 C   0  0  0  0  0  0  0  0  0  0  0  0
   24.9024   -0.1262  -11.2898 C   0  0  0  0  0  0  0  0  0  0  0  0
   26.1021   -0.2958  -10.6470 C   0  0  0  0  0  0  0  0  0  0  0  0
   27.2224   -0.2824  -11.6401 C   0  0  2  0  0  0  0  0  0  0  0  0
   28.3641    0.3217  -11.1811 O   0  0  0  0  0  0  0  0  0  0  0  0
   26.5825    0.5259  -12.7788 C   0  0  0  0  0  0  0  0  0  0  0  0
   25.1822    0.0004  -12.7395 C   0  0  0  0  0  0  0  0  0  0  0  0
  1  2  1  1
  2  3  2  0
  2  4  2  0
  2  5  1  6
  5  6  2  0
  6  7  1  0
  7  8  2  0
  8  9  1  0
  9 10  1  0
 10 11  2  0
 11 12  1  0
 12 13  1  0
 12 14  2  0
 14 15  1  0
 15 16  1  0
 16 17  3  0
 15 18  2  0
  8 19  1  0
 19 20  2  0
 20 21  1  0
 21 22  1  1
 21 23  1  0
 23 24  1  1
 20  5  1  0
 18 10  1  0
 24 19  1  1
M  END
$$$$
