_rank19
     RDKit          3D

 16 16  0  0  0  0  0  0  0  0999 V2000
   28.6298  -13.3997   -4.1680 C   0  0  0  0  0  0  0  0  0  0  0  0
   28.7286  -12.8305   -2.8899 O   0  0  0  0  0  0  0  0  0  0  0  0
   28.2341  -11.5660   -2.6291 C   0  0  0  0  0  0  0  0  0  0  0  0
   27.0892  -11.1813   -3.3268 C   0  0  0  0  0  0  0  0  0  0  0  0
   26.5881   -9.9251   -3.0753 C   0  0  0  0  0  0  0  0  0  0  0  0
   25.3651   -9.4888   -3.8074 C   0  0  1  0  0  0  0  0  0  0  0  0
   24.5793  -10.6384   -4.2319 N   0  0  0  0  0  0  0  0  0  0  0  0
   24.5444   -8.6890   -2.8940 C   0  0  0  0  0  0  0  0  0  0  0  0
   23.9038   -8.0391   -2.1772 N   0  0  0  0  0  0  0  0  0  0  0  0
   27.1446   -9.0272   -2.1809 C   0  0  0  0  0  0  0  0  0  0  0  0
   28.2834   -9.4679   -1.5167 C   0  0  0  0  0  0  0  0  0  0  0  0
   28.8250  -10.7087   -1.7286 C   0  0  0  0  0  0  0  0  0  0  0  0
   30.2520  -11.1903   -0.8601 S   0  0  1  0  0  6  0  0  0  0  0  0
   31.6057  -11.2255   -2.0412 C   0  0  0  0  0  0  0  0  0  0  0  0
   30.5549  -10.1978    0.2022 O   0  0  0  0  0  0  0  0  0  0  0  0
   30.1064  -12.5512   -0.2413 O   0  0  0  0  0  0  0  0  0  0  0  0
  1  2  1  6
  2  3  1  0
  3  4  2  0
  4  5  1  0
  5  6  1  0
  6  7  1  1
  6  8  1  0
  8  9  3  0
  5 10  2  0
 10 11  1  0
 11 12  2  0
 13 12  1  6
 14 13  1  6
 13 15  2  0
 13 16  2  0
 12  3  1  0
M  END
$$$$
