_rank8
     RDKit          3D

 16 16  0  0  0  0  0  0  0  0999 V2000
   26.4435    0.9022  -12.7449 C   0  0  0  0  0  0  0  0  0  0  0  0
   26.5009   -0.1033  -11.7687 O   0  0  0  0  0  0  0  0  0  0  0  0
   25.4474   -0.3185  -10.8997 C   0  0  0  0  0  0  0  0  0  0  0  0
   24.1717   -0.3818  -11.4600 C   0  0  0  0  0  0  0  0  0  0  0  0
   23.1156   -0.5956  -10.6047 C   0  0  0  0  0  0  0  0  0  0  0  0
   21.7413   -0.6675  -11.1775 C   0  0  1  0  0  0  0  0  0  0  0  0
   21.7872   -1.0287  -12.5871 N   0  0  0  0  0  0  0  0  0  0  0  0
   21.0011   -1.7119  -10.4642 C   0  0  0  0  0  0  0  0  0  0  0  0
   20.4278   -2.5372   -9.8839 N   0  0  0  0  0  0  0  0  0  0  0  0
   23.2394   -0.7504   -9.2348 C   0  0  0  0  0  0  0  0  0  0  0  0
   24.5349   -0.6775   -8.7362 C   0  0  0  0  0  0  0  0  0  0  0  0
   25.6228   -0.4665   -9.5423 C   0  0  0  0  0  0  0  0  0  0  0  0
   27.2139   -0.3874   -8.8460 S   0  0  1  0  0  6  0  0  0  0  0  0
   27.9790    1.1258   -9.4408 C   0  0  0  0  0  0  0  0  0  0  0  0
   27.1145   -0.3363   -7.3652 O   0  0  0  0  0  0  0  0  0  0  0  0
   28.0664   -1.5574   -9.2464 O   0  0  0  0  0  0  0  0  0  0  0  0
  1  2  1  6
  2  3  1  0
  3  4  2  0
  4  5  1  0
  5  6  1  0
  6  7  1  6
  6  8  1  0
  8  9  3  0
  5 10  2  0
 10 11  1  0
 11 12  2  0
 13 12  1  6
 14 13  1  6
 13 15  2  0
 13 16  2  0
 12  3  1  0
M  END
$$$$
