_rank10
     RDKit          3D

 16 16  0  0  0  0  0  0  0  0999 V2000
   25.9173    0.3043  -13.0118 C   0  0  0  0  0  0  0  0  0  0  0  0
   26.2562    0.3662  -11.6523 O   0  0  0  0  0  0  0  0  0  0  0  0
   25.3533   -0.0011  -10.6719 C   0  0  0  0  0  0  0  0  0  0  0  0
   24.0198   -0.1298  -11.0602 C   0  0  0  0  0  0  0  0  0  0  0  0
   23.1122   -0.4948  -10.0929 C   0  0  0  0  0  0  0  0  0  0  0  0
   21.6803   -0.6395  -10.4810 C   0  0  1  0  0  0  0  0  0  0  0  0
   21.2682    0.4522  -11.3517 N   0  0  0  0  0  0  0  0  0  0  0  0
   21.5307   -1.8943  -11.2230 C   0  0  0  0  0  0  0  0  0  0  0  0
   21.4149   -2.8779  -11.8277 N   0  0  0  0  0  0  0  0  0  0  0  0
   23.4374   -0.7402   -8.7700 C   0  0  0  0  0  0  0  0  0  0  0  0
   24.7811   -0.5957   -8.4445 C   0  0  0  0  0  0  0  0  0  0  0  0
   25.7271   -0.2343   -9.3677 C   0  0  0  0  0  0  0  0  0  0  0  0
   27.3898   -0.0735   -8.8858 S   0  0  1  0  0  6  0  0  0  0  0  0
   28.3368   -1.2652   -9.8406 C   0  0  0  0  0  0  0  0  0  0  0  0
   27.8741    1.2961   -9.1939 O   0  0  0  0  0  0  0  0  0  0  0  0
   27.5852   -0.3519   -7.4228 O   0  0  0  0  0  0  0  0  0  0  0  0
  1  2  1  6
  2  3  1  0
  3  4  2  0
  4  5  1  0
  5  6  1  0
  6  7  1  6
  6  8  1  0
  8  9  3  0
  5 10  2  0
 10 11  1  0
 11 12  2  0
 13 12  1  6
 14 13  1  6
 13 15  2  0
 13 16  2  0
 12  3  1  0
M  END
$$$$
