_rank12
     RDKit          3D

 16 16  0  0  0  0  0  0  0  0999 V2000
   24.7397    2.5818  -10.0443 C   0  0  0  0  0  0  0  0  0  0  0  0
   25.2202    1.4333  -10.6902 O   0  0  0  0  0  0  0  0  0  0  0  0
   24.6824    0.1869  -10.4286 C   0  0  0  0  0  0  0  0  0  0  0  0
   23.3334    0.0064  -10.7338 C   0  0  0  0  0  0  0  0  0  0  0  0
   22.7874   -1.2301  -10.4777 C   0  0  0  0  0  0  0  0  0  0  0  0
   21.3476   -1.4499  -10.7946 C   0  0  1  0  0  0  0  0  0  0  0  0
   20.6633   -2.0834   -9.6765 N   0  0  0  0  0  0  0  0  0  0  0  0
   20.7247   -0.1442  -11.0282 C   0  0  0  0  0  0  0  0  0  0  0  0
   20.2186    0.8861  -11.1982 N   0  0  0  0  0  0  0  0  0  0  0  0
   23.4875   -2.2967   -9.9408 C   0  0  0  0  0  0  0  0  0  0  0  0
   24.8269   -2.0554   -9.6581 C   0  0  0  0  0  0  0  0  0  0  0  0
   25.4218   -0.8434   -9.8929 C   0  0  0  0  0  0  0  0  0  0  0  0
   27.1032   -0.6163   -9.5134 S   0  0  1  0  0  6  0  0  0  0  0  0
   27.1991   -0.1656   -7.7766 C   0  0  0  0  0  0  0  0  0  0  0  0
   27.8453   -1.8839   -9.7318 O   0  0  0  0  0  0  0  0  0  0  0  0
   27.7279    0.4732  -10.3373 O   0  0  0  0  0  0  0  0  0  0  0  0
  1  2  1  6
  2  3  1  0
  3  4  2  0
  4  5  1  0
  5  6  1  0
  6  7  1  1
  6  8  1  0
  8  9  3  0
  5 10  2  0
 10 11  1  0
 11 12  2  0
 13 12  1  6
 14 13  1  6
 13 15  2  0
 13 16  2  0
 12  3  1  0
M  END
$$$$
