_rank3
     RDKit          3D

 16 16  0  0  0  0  0  0  0  0999 V2000
   26.9240    0.6328  -12.4730 C   0  0  0  0  0  0  0  0  0  0  0  0
   26.4897   -0.4990  -11.7677 O   0  0  0  0  0  0  0  0  0  0  0  0
   25.4220   -0.4309  -10.8921 C   0  0  0  0  0  0  0  0  0  0  0  0
   24.1480   -0.5814  -11.4396 C   0  0  0  0  0  0  0  0  0  0  0  0
   23.0778   -0.5154  -10.5777 C   0  0  0  0  0  0  0  0  0  0  0  0
   21.7050   -0.6731  -11.1367 C   0  0  1  0  0  0  0  0  0  0  0  0
   21.2927   -2.0691  -11.1081 N   0  0  0  0  0  0  0  0  0  0  0  0
   20.7778    0.0923  -10.2989 C   0  0  0  0  0  0  0  0  0  0  0  0
   20.0593    0.7063   -9.6256 N   0  0  0  0  0  0  0  0  0  0  0  0
   23.1859   -0.3107   -9.2130 C   0  0  0  0  0  0  0  0  0  0  0  0
   24.4805   -0.1680   -8.7272 C   0  0  0  0  0  0  0  0  0  0  0  0
   25.5821   -0.2252   -9.5404 C   0  0  0  0  0  0  0  0  0  0  0  0
   27.1710   -0.0379   -8.8600 S   0  0  1  0  0  6  0  0  0  0  0  0
   27.9886   -1.6338   -8.9739 C   0  0  0  0  0  0  0  0  0  0  0  0
   27.9399    0.9630   -9.6424 O   0  0  0  0  0  0  0  0  0  0  0  0
   27.1242    0.3868   -7.4200 O   0  0  0  0  0  0  0  0  0  0  0  0
  1  2  1  6
  2  3  1  0
  3  4  2  0
  4  5  1  0
  5  6  1  0
  6  7  1  1
  6  8  1  0
  8  9  3  0
  5 10  2  0
 10 11  1  0
 11 12  2  0
 13 12  1  6
 14 13  1  6
 13 15  2  0
 13 16  2  0
 12  3  1  0
M  END
$$$$
