_rank2
     RDKit          3D

 16 16  0  0  0  0  0  0  0  0999 V2000
   26.4501   -0.1081  -12.9085 C   0  0  0  0  0  0  0  0  0  0  0  0
   26.3925    0.2819  -11.5626 O   0  0  0  0  0  0  0  0  0  0  0  0
   25.3765   -0.1555  -10.7332 C   0  0  0  0  0  0  0  0  0  0  0  0
   24.1373   -0.3938  -11.3273 C   0  0  0  0  0  0  0  0  0  0  0  0
   23.1187   -0.8295  -10.5117 C   0  0  0  0  0  0  0  0  0  0  0  0
   21.7839   -1.0918  -11.1211 C   0  0  1  0  0  0  0  0  0  0  0  0
   20.9612   -1.9019  -10.2343 N   0  0  0  0  0  0  0  0  0  0  0  0
   21.1093    0.1940  -11.3190 C   0  0  0  0  0  0  0  0  0  0  0  0
   20.5628    1.2034  -11.4890 N   0  0  0  0  0  0  0  0  0  0  0  0
   23.2462   -1.0441   -9.1502 C   0  0  0  0  0  0  0  0  0  0  0  0
   24.5043   -0.7894   -8.6167 C   0  0  0  0  0  0  0  0  0  0  0  0
   25.5540   -0.3541   -9.3826 C   0  0  0  0  0  0  0  0  0  0  0  0
   27.0996   -0.0566   -8.6442 S   0  0  1  0  0  6  0  0  0  0  0  0
   27.5756    1.6235   -9.0679 C   0  0  0  0  0  0  0  0  0  0  0  0
   26.9848   -0.1754   -7.1685 O   0  0  0  0  0  0  0  0  0  0  0  0
   28.1553   -1.0041   -9.1381 O   0  0  0  0  0  0  0  0  0  0  0  0
  1  2  1  6
  2  3  1  0
  3  4  2  0
  4  5  1  0
  5  6  1  0
  6  7  1  1
  6  8  1  0
  8  9  3  0
  5 10  2  0
 10 11  1  0
 11 12  2  0
 13 12  1  6
 14 13  1  6
 13 15  2  0
 13 16  2  0
 12  3  1  0
M  END
$$$$
