_rank17
     RDKit          3D

 16 16  0  0  0  0  0  0  0  0999 V2000
   24.1645   -0.3900   -6.5715 C   0  0  0  0  0  0  0  0  0  0  0  0
   24.9599    0.0135   -7.6539 O   0  0  0  0  0  0  0  0  0  0  0  0
   24.5861   -0.2569   -8.9571 C   0  0  0  0  0  0  0  0  0  0  0  0
   23.2248   -0.4461   -9.1954 C   0  0  0  0  0  0  0  0  0  0  0  0
   22.8411   -0.7158  -10.4887 C   0  0  0  0  0  0  0  0  0  0  0  0
   21.3921   -0.9223  -10.7710 C   0  0  1  0  0  0  0  0  0  0  0  0
   20.8320   -1.9328   -9.8852 N   0  0  0  0  0  0  0  0  0  0  0  0
   20.6916    0.3404  -10.5212 C   0  0  0  0  0  0  0  0  0  0  0  0
   20.1202    1.3299  -10.3189 N   0  0  0  0  0  0  0  0  0  0  0  0
   23.7142   -0.8102  -11.5586 C   0  0  0  0  0  0  0  0  0  0  0  0
   25.0569   -0.6120  -11.2581 C   0  0  0  0  0  0  0  0  0  0  0  0
   25.4944   -0.3406   -9.9881 C   0  0  0  0  0  0  0  0  0  0  0  0
   27.1907   -0.1043   -9.6889 S   0  0  1  0  0  6  0  0  0  0  0  0
   28.0828   -0.9183  -11.0195 C   0  0  0  0  0  0  0  0  0  0  0  0
   27.5080    1.3463   -9.7025 O   0  0  0  0  0  0  0  0  0  0  0  0
   27.6222   -0.6948   -8.3770 O   0  0  0  0  0  0  0  0  0  0  0  0
  1  2  1  6
  2  3  1  0
  3  4  2  0
  4  5  1  0
  5  6  1  0
  6  7  1  1
  6  8  1  0
  8  9  3  0
  5 10  2  0
 10 11  1  0
 11 12  2  0
 13 12  1  6
 14 13  1  6
 13 15  2  0
 13 16  2  0
 12  3  1  0
M  END
$$$$
