_rank11
     RDKit          3D

 16 16  0  0  0  0  0  0  0  0999 V2000
   25.5000    1.3578  -12.7665 C   0  0  0  0  0  0  0  0  0  0  0  0
   25.9382    0.8123  -11.5510 O   0  0  0  0  0  0  0  0  0  0  0  0
   25.1068    0.0212  -10.7801 C   0  0  0  0  0  0  0  0  0  0  0  0
   23.8204   -0.2045  -11.2699 C   0  0  0  0  0  0  0  0  0  0  0  0
   22.9842   -0.9903  -10.5111 C   0  0  0  0  0  0  0  0  0  0  0  0
   21.6038   -1.2475  -11.0114 C   0  0  1  0  0  0  0  0  0  0  0  0
   20.7629   -1.7880   -9.9529 N   0  0  0  0  0  0  0  0  0  0  0  0
   21.0272    0.0286  -11.4434 C   0  0  0  0  0  0  0  0  0  0  0  0
   20.5629    1.0415  -11.7671 N   0  0  0  0  0  0  0  0  0  0  0  0
   23.3369   -1.5657   -9.3026 C   0  0  0  0  0  0  0  0  0  0  0  0
   24.6310   -1.3044   -8.8674 C   0  0  0  0  0  0  0  0  0  0  0  0
   25.5055   -0.5290   -9.5829 C   0  0  0  0  0  0  0  0  0  0  0  0
   27.1094   -0.2464   -8.9744 S   0  0  1  0  0  6  0  0  0  0  0  0
   28.2359   -1.2303   -9.9702 C   0  0  0  0  0  0  0  0  0  0  0  0
   27.4572    1.1902   -9.1171 O   0  0  0  0  0  0  0  0  0  0  0  0
   27.2484   -0.6504   -7.5344 O   0  0  0  0  0  0  0  0  0  0  0  0
  1  2  1  6
  2  3  1  0
  3  4  2  0
  4  5  1  0
  5  6  1  0
  6  7  1  1
  6  8  1  0
  8  9  3  0
  5 10  2  0
 10 11  1  0
 11 12  2  0
 13 12  1  6
 14 13  1  6
 13 15  2  0
 13 16  2  0
 12  3  1  0
M  END
$$$$
