_rank20
     RDKit          3D

 16 16  0  0  0  0  0  0  0  0999 V2000
   25.5129    0.7779   -8.2763 C   0  0  0  0  0  0  0  0  0  0  0  0
   25.1499    0.8342   -9.6299 O   0  0  0  0  0  0  0  0  0  0  0  0
   23.9942    0.2287  -10.0870 C   0  0  0  0  0  0  0  0  0  0  0  0
   22.7856    0.8199   -9.7190 C   0  0  0  0  0  0  0  0  0  0  0  0
   21.6289    0.2260  -10.1682 C   0  0  0  0  0  0  0  0  0  0  0  0
   20.3234    0.8375   -9.7894 C   0  0  1  0  0  0  0  0  0  0  0  0
   19.2566    0.3560  -10.6553 N   0  0  0  0  0  0  0  0  0  0  0  0
   20.0101    0.4359   -8.4153 C   0  0  0  0  0  0  0  0  0  0  0  0
   19.7532    0.1013   -7.3344 N   0  0  0  0  0  0  0  0  0  0  0  0
   21.5903   -0.9117  -10.9557 C   0  0  0  0  0  0  0  0  0  0  0  0
   22.8259   -1.4542  -11.2891 C   0  0  0  0  0  0  0  0  0  0  0  0
   24.0086   -0.9040  -10.8692 C   0  0  0  0  0  0  0  0  0  0  0  0
   25.5161   -1.6393  -11.3269 S   0  0  1  0  0  6  0  0  0  0  0  0
   26.6199   -0.3153  -11.8345 C   0  0  0  0  0  0  0  0  0  0  0  0
   26.1054   -2.3485  -10.1628 O   0  0  0  0  0  0  0  0  0  0  0  0
   25.3529   -2.6046  -12.4660 O   0  0  0  0  0  0  0  0  0  0  0  0
  1  2  1  6
  2  3  1  0
  3  4  2  0
  4  5  1  0
  5  6  1  0
  6  7  1  6
  6  8  1  0
  8  9  3  0
  5 10  2  0
 10 11  1  0
 11 12  2  0
 13 12  1  1
 14 13  1  6
 13 15  2  0
 13 16  2  0
 12  3  1  0
M  END
$$$$
