_rank4
     RDKit          3D

 16 16  0  0  0  0  0  0  0  0999 V2000
   26.3934   -0.1128  -12.7470 C   0  0  0  0  0  0  0  0  0  0  0  0
   26.6279   -0.3599  -11.3865 O   0  0  0  0  0  0  0  0  0  0  0  0
   25.5840   -0.4477  -10.4844 C   0  0  0  0  0  0  0  0  0  0  0  0
   24.2937   -0.4617  -11.0138 C   0  0  0  0  0  0  0  0  0  0  0  0
   23.2469   -0.5488  -10.1255 C   0  0  0  0  0  0  0  0  0  0  0  0
   21.8574   -0.5656  -10.6648 C   0  0  1  0  0  0  0  0  0  0  0  0
   21.8118    0.0267  -11.9940 N   0  0  0  0  0  0  0  0  0  0  0  0
   21.4245   -1.9614  -10.7738 C   0  0  0  0  0  0  0  0  0  0  0  0
   21.0845   -3.0689  -10.8403 N   0  0  0  0  0  0  0  0  0  0  0  0
   23.3934   -0.6228   -8.7511 C   0  0  0  0  0  0  0  0  0  0  0  0
   24.7026   -0.6045   -8.2842 C   0  0  0  0  0  0  0  0  0  0  0  0
   25.7821   -0.5191   -9.1240 C   0  0  0  0  0  0  0  0  0  0  0  0
   27.3913   -0.5016   -8.4661 S   0  0  1  0  0  6  0  0  0  0  0  0
   27.8637    1.2203   -8.2646 C   0  0  0  0  0  0  0  0  0  0  0  0
   27.4016   -1.1703   -7.1403 O   0  0  0  0  0  0  0  0  0  0  0  0
   28.3809   -1.1782   -9.3712 O   0  0  0  0  0  0  0  0  0  0  0  0
  1  2  1  6
  2  3  1  0
  3  4  2  0
  4  5  1  0
  5  6  1  0
  6  7  1  6
  6  8  1  0
  8  9  3  0
  5 10  2  0
 10 11  1  0
 11 12  2  0
 13 12  1  6
 14 13  1  6
 13 15  2  0
 13 16  2  0
 12  3  1  0
M  END
$$$$
