_rank1
     RDKit          3D

 16 16  0  0  0  0  0  0  0  0999 V2000
   26.3938    0.4264  -12.7940 C   0  0  0  0  0  0  0  0  0  0  0  0
   26.5312   -0.0519  -11.4827 O   0  0  0  0  0  0  0  0  0  0  0  0
   25.4254   -0.2884  -10.6873 C   0  0  0  0  0  0  0  0  0  0  0  0
   24.1954   -0.3992  -11.3357 C   0  0  0  0  0  0  0  0  0  0  0  0
   23.0879   -0.6345  -10.5542 C   0  0  0  0  0  0  0  0  0  0  0  0
   21.7608   -0.7572  -11.2218 C   0  0  1  0  0  0  0  0  0  0  0  0
   21.2696   -2.1257  -11.1475 N   0  0  0  0  0  0  0  0  0  0  0  0
   20.8104    0.1061  -10.5156 C   0  0  0  0  0  0  0  0  0  0  0  0
   20.0732    0.7980   -9.9462 N   0  0  0  0  0  0  0  0  0  0  0  0
   23.1182   -0.7670   -9.1767 C   0  0  0  0  0  0  0  0  0  0  0  0
   24.3721   -0.6468   -8.5887 C   0  0  0  0  0  0  0  0  0  0  0  0
   25.5079   -0.4125   -9.3188 C   0  0  0  0  0  0  0  0  0  0  0  0
   27.0420   -0.2741   -8.5127 S   0  0  1  0  0  6  0  0  0  0  0  0
   27.7758    1.2819   -9.0314 C   0  0  0  0  0  0  0  0  0  0  0  0
   26.8389   -0.2532   -7.0418 O   0  0  0  0  0  0  0  0  0  0  0  0
   27.9729   -1.3976   -8.8695 O   0  0  0  0  0  0  0  0  0  0  0  0
  1  2  1  6
  2  3  1  0
  3  4  2  0
  4  5  1  0
  5  6  1  0
  6  7  1  1
  6  8  1  0
  8  9  3  0
  5 10  2  0
 10 11  1  0
 11 12  2  0
 13 12  1  6
 14 13  1  6
 13 15  2  0
 13 16  2  0
 12  3  1  0
M  END
$$$$
