_rank14
     RDKit          3D

 16 16  0  0  0  0  0  0  0  0999 V2000
   24.9606    0.6821  -13.3674 C   0  0  0  0  0  0  0  0  0  0  0  0
   23.9827    0.5171  -12.3757 O   0  0  0  0  0  0  0  0  0  0  0  0
   24.2861   -0.0708  -11.1617 C   0  0  0  0  0  0  0  0  0  0  0  0
   25.5718    0.1400  -10.6638 C   0  0  0  0  0  0  0  0  0  0  0  0
   25.8850   -0.4403   -9.4564 C   0  0  0  0  0  0  0  0  0  0  0  0
   27.2526   -0.2309   -8.9015 C   0  0  1  0  0  0  0  0  0  0  0  0
   27.3726   -0.8337   -7.5818 N   0  0  0  0  0  0  0  0  0  0  0  0
   28.2141   -0.8882   -9.7909 C   0  0  0  0  0  0  0  0  0  0  0  0
   28.9603   -1.4145  -10.5069 N   0  0  0  0  0  0  0  0  0  0  0  0
   25.0112   -1.2133   -8.7116 C   0  0  0  0  0  0  0  0  0  0  0  0
   23.7456   -1.3870   -9.2597 C   0  0  0  0  0  0  0  0  0  0  0  0
   23.3802   -0.8322  -10.4583 C   0  0  0  0  0  0  0  0  0  0  0  0
   21.7780   -1.0935  -11.0806 S   0  0  1  0  0  6  0  0  0  0  0  0
   21.9403   -2.1065  -12.5558 C   0  0  0  0  0  0  0  0  0  0  0  0
   20.9589   -1.8188  -10.0765 O   0  0  0  0  0  0  0  0  0  0  0  0
   21.0941    0.1937  -11.4432 O   0  0  0  0  0  0  0  0  0  0  0  0
  1  2  1  6
  2  3  1  0
  3  4  2  0
  4  5  1  0
  5  6  1  0
  6  7  1  1
  6  8  1  0
  8  9  3  0
  5 10  2  0
 10 11  1  0
 11 12  2  0
 13 12  1  1
 14 13  1  6
 13 15  2  0
 13 16  2  0
 12  3  1  0
M  END
$$$$
