_rank6
     RDKit          3D

 16 16  0  0  0  0  0  0  0  0999 V2000
   26.1597    0.9123  -13.0663 C   0  0  0  0  0  0  0  0  0  0  0  0
   26.4421    0.4069  -11.7888 O   0  0  0  0  0  0  0  0  0  0  0  0
   25.4279    0.0457  -10.9214 C   0  0  0  0  0  0  0  0  0  0  0  0
   24.1282    0.0705  -11.4270 C   0  0  0  0  0  0  0  0  0  0  0  0
   23.1108   -0.2870  -10.5728 C   0  0  0  0  0  0  0  0  0  0  0  0
   21.7121   -0.2691  -11.0877 C   0  0  1  0  0  0  0  0  0  0  0  0
   21.6891    0.0388  -12.5104 N   0  0  0  0  0  0  0  0  0  0  0  0
   21.1378   -1.6044  -10.9019 C   0  0  0  0  0  0  0  0  0  0  0  0
   20.6819   -2.6584  -10.7350 N   0  0  0  0  0  0  0  0  0  0  0  0
   23.2953   -0.6663   -9.2545 C   0  0  0  0  0  0  0  0  0  0  0  0
   24.6120   -0.6713   -8.8090 C   0  0  0  0  0  0  0  0  0  0  0  0
   25.6635   -0.3245   -9.6166 C   0  0  0  0  0  0  0  0  0  0  0  0
   27.2843   -0.3548   -8.9885 S   0  0  1  0  0  6  0  0  0  0  0  0
   27.8718    1.3429   -8.9534 C   0  0  0  0  0  0  0  0  0  0  0  0
   27.2798   -0.8998   -7.6072 O   0  0  0  0  0  0  0  0  0  0  0  0
   28.2079   -1.1751   -9.8431 O   0  0  0  0  0  0  0  0  0  0  0  0
  1  2  1  6
  2  3  1  0
  3  4  2  0
  4  5  1  0
  5  6  1  0
  6  7  1  6
  6  8  1  0
  8  9  3  0
  5 10  2  0
 10 11  1  0
 11 12  2  0
 13 12  1  6
 14 13  1  6
 13 15  2  0
 13 16  2  0
 12  3  1  0
M  END
$$$$
