_rank1
     RDKit          3D

 20 21  0  0  0  0  0  0  0  0999 V2000
   26.6799    0.7291  -12.7319 C   0  0  0  0  0  0  0  0  0  0  0  0
   25.5525   -0.1240  -12.3184 C   0  0  2  0  0  0  0  0  0  0  0  0
   24.2455    0.6200  -12.4610 C   0  0  0  0  0  0  0  0  0  0  0  0
   25.6653   -0.8692  -11.0219 C   0  0  1  0  0  0  0  0  0  0  0  0
   27.0146   -1.4397  -10.7872 C   0  0  0  0  0  0  0  0  0  0  0  0
   27.8040   -1.0285   -9.6257 C   0  0  0  0  0  0  0  0  0  0  0  0
   27.0024   -0.5299   -8.4526 C   0  0  1  0  0  0  0  0  0  0  0  0
   27.8587   -0.0297   -7.3286 C   0  0  0  0  0  0  0  0  0  0  0  0
   26.1096    0.5648   -9.0186 C   0  0  0  0  0  0  0  0  0  0  0  0
   25.0774   -0.2092   -9.8316 C   0  0  1  0  0  0  0  0  0  0  0  0
   23.9204    0.5101  -10.0495 O   0  0  0  0  0  0  0  0  0  0  0  0
   22.6264    0.0879  -10.1911 C   0  0  0  0  0  0  0  0  0  0  0  0
   22.3183   -1.1480  -10.6879 C   0  0  0  0  0  0  0  0  0  0  0  0
   20.9748   -1.5245  -10.8091 C   0  0  0  0  0  0  0  0  0  0  0  0
   20.6815   -2.7566  -11.3064 F   0  0  0  0  0  0  0  0  0  0  0  0
   19.9526   -0.6846  -10.4415 C   0  0  0  0  0  0  0  0  0  0  0  0
   20.2529    0.5803   -9.9323 C   0  0  0  0  0  0  0  0  0  0  0  0
   19.1943    1.4704   -9.5356 C   0  0  0  0  0  0  0  0  0  0  0  0
   18.3347    2.1810   -9.2118 N   0  0  0  0  0  0  0  0  0  0  0  0
   21.5761    0.9197   -9.8259 C   0  0  0  0  0  0  0  0  0  0  0  0
  2  1  1  1
  3  2  1  6
  2  4  1  0
  4  5  1  1
  5  6  1  1
  6  7  1  1
  7  8  1  1
  7  9  1  0
  9 10  1  6
 10 11  1  6
 11 12  1  0
 12 13  2  0
 13 14  1  0
 14 15  1  0
 14 16  2  0
 16 17  1  0
 17 18  1  0
 18 19  3  0
 17 20  2  0
 10  4  1  0
 20 12  1  0
M  END
$$$$
