_rank7
     RDKit          3D

 20 21  0  0  0  0  0  0  0  0999 V2000
   19.8879   -2.5028  -11.6170 C   0  0  0  0  0  0  0  0  0  0  0  0
   21.0247   -1.7005  -12.1006 C   0  0  2  0  0  0  0  0  0  0  0  0
   22.2993   -2.5102  -12.0603 C   0  0  0  0  0  0  0  0  0  0  0  0
   21.1939   -0.3121  -11.5597 C   0  0  1  0  0  0  0  0  0  0  0  0
   19.9103    0.4107  -11.3835 C   0  0  0  0  0  0  0  0  0  0  0  0
   19.4933    0.8737  -10.0594 C   0  0  0  0  0  0  0  0  0  0  0  0
   20.6155    1.1205   -9.0863 C   0  0  1  0  0  0  0  0  0  0  0  0
   20.1321    1.4971   -7.7184 C   0  0  0  0  0  0  0  0  0  0  0  0
   21.4184   -0.1723   -9.0703 C   0  0  0  0  0  0  0  0  0  0  0  0
   22.1292   -0.1609  -10.4193 C   0  0  1  0  0  0  0  0  0  0  0  0
   23.2453   -0.9717  -10.4419 O   0  0  0  0  0  0  0  0  0  0  0  0
   24.5747   -0.6535  -10.3778 C   0  0  0  0  0  0  0  0  0  0  0  0
   25.3704   -0.6397  -11.4895 C   0  0  0  0  0  0  0  0  0  0  0  0
   26.7244   -0.3054  -11.3613 C   0  0  0  0  0  0  0  0  0  0  0  0
   27.5059   -0.2969  -12.4752 F   0  0  0  0  0  0  0  0  0  0  0  0
   27.2791    0.0108  -10.1457 C   0  0  0  0  0  0  0  0  0  0  0  0
   26.4780    0.0011   -9.0022 C   0  0  0  0  0  0  0  0  0  0  0  0
   27.0413    0.3367   -7.7215 C   0  0  0  0  0  0  0  0  0  0  0  0
   27.4867    0.6083   -6.6839 N   0  0  0  0  0  0  0  0  0  0  0  0
   25.1578   -0.3301   -9.1596 C   0  0  0  0  0  0  0  0  0  0  0  0
  2  1  1  1
  3  2  1  6
  2  4  1  0
  4  5  1  1
  5  6  1  1
  6  7  1  1
  7  8  1  1
  7  9  1  0
  9 10  1  6
 10 11  1  1
 11 12  1  0
 12 13  2  0
 13 14  1  0
 14 15  1  0
 14 16  2  0
 16 17  1  0
 17 18  1  0
 18 19  3  0
 17 20  2  0
 10  4  1  0
 20 12  1  0
M  END
$$$$
