_rank17
     RDKit          3D

 20 21  0  0  0  0  0  0  0  0999 V2000
   23.3501   -1.1617  -13.4369 C   0  0  0  0  0  0  0  0  0  0  0  0
   21.9732   -0.9230  -12.9710 C   0  0  2  0  0  0  0  0  0  0  0  0
   21.1277   -0.3552  -14.0866 C   0  0  0  0  0  0  0  0  0  0  0  0
   21.7798   -0.2093  -11.6663 C   0  0  1  0  0  0  0  0  0  0  0  0
   20.3608    0.1138  -11.3778 C   0  0  0  0  0  0  0  0  0  0  0  0
   19.7009   -0.4302  -10.1904 C   0  0  0  0  0  0  0  0  0  0  0  0
   20.6217   -0.7791   -9.0512 C   0  0  1  0  0  0  0  0  0  0  0  0
   19.9104   -1.4226   -7.8995 C   0  0  0  0  0  0  0  0  0  0  0  0
   21.6718   -1.6989   -9.6573 C   0  0  0  0  0  0  0  0  0  0  0  0
   22.5195   -0.7549  -10.5031 C   0  0  1  0  0  0  0  0  0  0  0  0
   23.7763   -1.2584  -10.7686 O   0  0  0  0  0  0  0  0  0  0  0  0
   25.0111   -0.6885  -10.6161 C   0  0  0  0  0  0  0  0  0  0  0  0
   25.6954   -0.1505  -11.6703 C   0  0  0  0  0  0  0  0  0  0  0  0
   26.9559    0.4197  -11.4521 C   0  0  0  0  0  0  0  0  0  0  0  0
   27.6274    0.9504  -12.5099 F   0  0  0  0  0  0  0  0  0  0  0  0
   27.5275    0.4546  -10.2041 C   0  0  0  0  0  0  0  0  0  0  0  0
   26.8395   -0.0908   -9.1185 C   0  0  0  0  0  0  0  0  0  0  0  0
   27.4205   -0.0564   -7.8027 C   0  0  0  0  0  0  0  0  0  0  0  0
   27.8972   -0.0232   -6.7442 N   0  0  0  0  0  0  0  0  0  0  0  0
   25.6089   -0.6414   -9.3636 C   0  0  0  0  0  0  0  0  0  0  0  0
  2  1  1  6
  3  2  1  6
  2  4  1  0
  4  5  1  1
  5  6  1  1
  6  7  1  1
  7  8  1  1
  7  9  1  0
  9 10  1  6
 10 11  1  6
 11 12  1  0
 12 13  2  0
 13 14  1  0
 14 15  1  0
 14 16  2  0
 16 17  1  0
 17 18  1  0
 18 19  3  0
 17 20  2  0
 10  4  1  0
 20 12  1  0
M  END
$$$$
