_rank12
     RDKit          3D

 20 21  0  0  0  0  0  0  0  0999 V2000
   24.0359    2.0246  -11.1565 C   0  0  0  0  0  0  0  0  0  0  0  0
   22.6112    1.6992  -10.9713 C   0  0  2  0  0  0  0  0  0  0  0  0
   21.8154    2.9505  -10.6833 C   0  0  0  0  0  0  0  0  0  0  0  0
   22.2565    0.5568  -10.0669 C   0  0  1  0  0  0  0  0  0  0  0  0
   20.7966    0.3069   -9.9803 C   0  0  0  0  0  0  0  0  0  0  0  0
   20.2361   -0.9784  -10.3989 C   0  0  0  0  0  0  0  0  0  0  0  0
   21.1870   -2.1438  -10.3271 C   0  0  1  0  0  0  0  0  0  0  0  0
   20.5964   -3.4148  -10.8584 C   0  0  0  0  0  0  0  0  0  0  0  0
   22.4092   -1.7081  -11.1222 C   0  0  0  0  0  0  0  0  0  0  0  0
   23.0684   -0.6749  -10.2150 C   0  0  1  0  0  0  0  0  0  0  0  0
   24.4047   -0.4866  -10.5023 O   0  0  0  0  0  0  0  0  0  0  0  0
   25.5233   -0.8828   -9.8210 C   0  0  0  0  0  0  0  0  0  0  0  0
   25.8705   -2.1999   -9.7029 C   0  0  0  0  0  0  0  0  0  0  0  0
   27.0279   -2.5444   -8.9935 C   0  0  0  0  0  0  0  0  0  0  0  0
   27.3617   -3.8588   -8.8819 F   0  0  0  0  0  0  0  0  0  0  0  0
   27.8284   -1.5934   -8.4102 C   0  0  0  0  0  0  0  0  0  0  0  0
   27.4859   -0.2446   -8.5233 C   0  0  0  0  0  0  0  0  0  0  0  0
   28.3172    0.7655   -7.9243 C   0  0  0  0  0  0  0  0  0  0  0  0
   28.9800    1.5864   -7.4390 N   0  0  0  0  0  0  0  0  0  0  0  0
   26.3481    0.0609   -9.2231 C   0  0  0  0  0  0  0  0  0  0  0  0
  2  1  1  1
  3  2  1  6
  2  4  1  0
  4  5  1  6
  5  6  1  1
  6  7  1  1
  7  8  1  6
  7  9  1  0
  9 10  1  6
 10 11  1  6
 11 12  1  0
 12 13  2  0
 13 14  1  0
 14 15  1  0
 14 16  2  0
 16 17  1  0
 17 18  1  0
 18 19  3  0
 17 20  2  0
 10  4  1  0
 20 12  1  0
M  END
$$$$
