_rank15
     RDKit          3D

 20 21  0  0  0  0  0  0  0  0999 V2000
   22.3003   -2.1710  -12.8422 C   0  0  0  0  0  0  0  0  0  0  0  0
   21.1865   -1.6334  -12.0420 C   0  0  2  0  0  0  0  0  0  0  0  0
   19.9313   -1.5397  -12.8772 C   0  0  0  0  0  0  0  0  0  0  0  0
   21.4345   -0.4068  -11.2155 C   0  0  1  0  0  0  0  0  0  0  0  0
   20.2253    0.0780  -10.5055 C   0  0  0  0  0  0  0  0  0  0  0  0
   20.1995    0.1491   -9.0442 C   0  0  0  0  0  0  0  0  0  0  0  0
   21.5466    0.2981   -8.3879 C   0  0  1  0  0  0  0  0  0  0  0  0
   21.4753    0.2668   -6.8911 C   0  0  0  0  0  0  0  0  0  0  0  0
   22.3862   -0.8440   -8.9417 C   0  0  0  0  0  0  0  0  0  0  0  0
   22.6587   -0.4146  -10.3793 C   0  0  1  0  0  0  0  0  0  0  0  0
   23.7591   -1.0430  -10.9251 O   0  0  0  0  0  0  0  0  0  0  0  0
   25.0843   -0.9580  -10.5945 C   0  0  0  0  0  0  0  0  0  0  0  0
   26.0608   -1.5232  -11.3667 C   0  0  0  0  0  0  0  0  0  0  0  0
   27.4006   -1.4024  -10.9772 C   0  0  0  0  0  0  0  0  0  0  0  0
   28.3628   -1.9707  -11.7535 F   0  0  0  0  0  0  0  0  0  0  0  0
   27.7643   -0.7295   -9.8368 C   0  0  0  0  0  0  0  0  0  0  0  0
   26.7774   -0.1472   -9.0392 C   0  0  0  0  0  0  0  0  0  0  0  0
   27.1412    0.5677   -7.8447 C   0  0  0  0  0  0  0  0  0  0  0  0
   27.4446    1.1429   -6.8825 N   0  0  0  0  0  0  0  0  0  0  0  0
   25.4760   -0.2824   -9.4463 C   0  0  0  0  0  0  0  0  0  0  0  0
  2  1  1  6
  3  2  1  6
  2  4  1  0
  4  5  1  1
  5  6  1  1
  6  7  1  1
  7  8  1  1
  7  9  1  0
  9 10  1  6
 10 11  1  6
 11 12  1  0
 12 13  2  0
 13 14  1  0
 14 15  1  0
 14 16  2  0
 16 17  1  0
 17 18  1  0
 18 19  3  0
 17 20  2  0
 10  4  1  0
 20 12  1  0
M  END
$$$$
