_rank5
     RDKit          3D

 20 21  0  0  0  0  0  0  0  0999 V2000
   24.7821   -0.4513  -12.5430 C   0  0  0  0  0  0  0  0  0  0  0  0
   23.8200    0.5903  -12.1439 C   0  0  2  0  0  0  0  0  0  0  0  0
   24.5029    1.9346  -12.0516 C   0  0  0  0  0  0  0  0  0  0  0  0
   22.9141    0.3111  -10.9819 C   0  0  1  0  0  0  0  0  0  0  0  0
   21.5156    0.7523  -11.2074 C   0  0  0  0  0  0  0  0  0  0  0  0
   20.4181   -0.2154  -11.1867 C   0  0  0  0  0  0  0  0  0  0  0  0
   20.6755   -1.4558  -10.3727 C   0  0  1  0  0  0  0  0  0  0  0  0
   19.5636   -2.4568  -10.4637 C   0  0  0  0  0  0  0  0  0  0  0  0
   21.9882   -2.0134  -10.9035 C   0  0  0  0  0  0  0  0  0  0  0  0
   23.0275   -1.0340  -10.3689 C   0  0  1  0  0  0  0  0  0  0  0  0
   24.2969   -1.5729  -10.3254 O   0  0  0  0  0  0  0  0  0  0  0  0
   25.5074   -0.9756  -10.1007 C   0  0  0  0  0  0  0  0  0  0  0  0
   26.4409   -0.8365  -11.0898 C   0  0  0  0  0  0  0  0  0  0  0  0
   27.6622   -0.2156  -10.7995 C   0  0  0  0  0  0  0  0  0  0  0  0
   28.5835   -0.0848  -11.7923 F   0  0  0  0  0  0  0  0  0  0  0  0
   27.9511    0.2603   -9.5443 C   0  0  0  0  0  0  0  0  0  0  0  0
   27.0067    0.1254   -8.5249 C   0  0  0  0  0  0  0  0  0  0  0  0
   27.2901    0.6247   -7.2056 C   0  0  0  0  0  0  0  0  0  0  0  0
   27.5149    1.0193   -6.1368 N   0  0  0  0  0  0  0  0  0  0  0  0
   25.8217   -0.4864   -8.8396 C   0  0  0  0  0  0  0  0  0  0  0  0
  2  1  1  1
  3  2  1  6
  2  4  1  0
  4  5  1  6
  5  6  1  1
  6  7  1  1
  7  8  1  6
  7  9  1  0
  9 10  1  6
 10 11  1  6
 11 12  1  0
 12 13  2  0
 13 14  1  0
 14 15  1  0
 14 16  2  0
 16 17  1  0
 17 18  1  0
 18 19  3  0
 17 20  2  0
 10  4  1  0
 20 12  1  0
M  END
$$$$
