_rank16
     RDKit          3D

 20 21  0  0  0  0  0  0  0  0999 V2000
   21.1860   -3.0794  -10.3570 C   0  0  0  0  0  0  0  0  0  0  0  0
   20.9605   -2.1912  -11.5103 C   0  0  2  0  0  0  0  0  0  0  0  0
   21.7031   -2.6998  -12.7235 C   0  0  0  0  0  0  0  0  0  0  0  0
   21.1108   -0.7130  -11.3070 C   0  0  1  0  0  0  0  0  0  0  0  0
   19.9135   -0.0778  -10.7037 C   0  0  0  0  0  0  0  0  0  0  0  0
   20.0054    0.6072   -9.4139 C   0  0  0  0  0  0  0  0  0  0  0  0
   21.3717    1.1371   -9.0679 C   0  0  1  0  0  0  0  0  0  0  0  0
   21.4357    1.7410   -7.6976 C   0  0  0  0  0  0  0  0  0  0  0  0
   22.3070   -0.0552   -9.2086 C   0  0  0  0  0  0  0  0  0  0  0  0
   22.3928   -0.2581  -10.7175 C   0  0  1  0  0  0  0  0  0  0  0  0
   23.5165   -0.9619  -11.0988 O   0  0  0  0  0  0  0  0  0  0  0  0
   24.8437   -0.6749  -10.9286 C   0  0  0  0  0  0  0  0  0  0  0  0
   25.6532   -0.3433  -11.9793 C   0  0  0  0  0  0  0  0  0  0  0  0
   27.0040   -0.0591  -11.7428 C   0  0  0  0  0  0  0  0  0  0  0  0
   27.7995    0.2681  -12.7972 F   0  0  0  0  0  0  0  0  0  0  0  0
   27.5421   -0.1037  -10.4803 C   0  0  0  0  0  0  0  0  0  0  0  0
   26.7267   -0.4405   -9.3981 C   0  0  0  0  0  0  0  0  0  0  0  0
   27.2724   -0.4851   -8.0676 C   0  0  0  0  0  0  0  0  0  0  0  0
   27.7056   -0.5147   -6.9905 N   0  0  0  0  0  0  0  0  0  0  0  0
   25.4099   -0.7133   -9.6612 C   0  0  0  0  0  0  0  0  0  0  0  0
  2  1  1  1
  3  2  1  6
  2  4  1  0
  4  5  1  1
  5  6  1  1
  6  7  1  1
  7  8  1  1
  7  9  1  0
  9 10  1  6
 10 11  1  1
 11 12  1  0
 12 13  2  0
 13 14  1  0
 14 15  1  0
 14 16  2  0
 16 17  1  0
 17 18  1  0
 18 19  3  0
 17 20  2  0
 10  4  1  0
 20 12  1  0
M  END
$$$$
