_rank6
     RDKit          3D

 20 21  0  0  0  0  0  0  0  0999 V2000
   23.6807    0.0379  -13.4414 C   0  0  0  0  0  0  0  0  0  0  0  0
   23.5490    0.9428  -12.2865 C   0  0  2  0  0  0  0  0  0  0  0  0
   24.8990    1.4897  -11.8857 C   0  0  0  0  0  0  0  0  0  0  0  0
   22.7304    0.4848  -11.1164 C   0  0  1  0  0  0  0  0  0  0  0  0
   21.2690    0.5265  -11.3691 C   0  0  0  0  0  0  0  0  0  0  0  0
   20.4684   -0.6968  -11.3069 C   0  0  0  0  0  0  0  0  0  0  0  0
   21.0326   -1.7857  -10.4332 C   0  0  1  0  0  0  0  0  0  0  0  0
   20.2290   -3.0501  -10.4811 C   0  0  0  0  0  0  0  0  0  0  0  0
   22.4553   -1.9965  -10.9309 C   0  0  0  0  0  0  0  0  0  0  0  0
   23.1873   -0.7524  -10.4392 C   0  0  1  0  0  0  0  0  0  0  0  0
   24.5533   -0.9308  -10.3643 O   0  0  0  0  0  0  0  0  0  0  0  0
   25.4225   -0.7048   -9.3318 C   0  0  0  0  0  0  0  0  0  0  0  0
   24.9879   -0.3698   -8.0796 C   0  0  0  0  0  0  0  0  0  0  0  0
   25.9255   -0.1511   -7.0625 C   0  0  0  0  0  0  0  0  0  0  0  0
   25.4801    0.1832   -5.8210 F   0  0  0  0  0  0  0  0  0  0  0  0
   27.2755   -0.2639   -7.2871 C   0  0  0  0  0  0  0  0  0  0  0  0
   27.7332   -0.6057   -8.5610 C   0  0  0  0  0  0  0  0  0  0  0  0
   29.1440   -0.7351   -8.8122 C   0  0  0  0  0  0  0  0  0  0  0  0
   30.2817   -0.8496   -9.0154 N   0  0  0  0  0  0  0  0  0  0  0  0
   26.7920   -0.8132   -9.5350 C   0  0  0  0  0  0  0  0  0  0  0  0
  2  1  1  6
  3  2  1  6
  2  4  1  0
  4  5  1  6
  5  6  1  1
  6  7  1  1
  7  8  1  6
  7  9  1  0
  9 10  1  6
 10 11  1  6
 11 12  1  0
 12 13  2  0
 13 14  1  0
 14 15  1  0
 14 16  2  0
 16 17  1  0
 17 18  1  0
 18 19  3  0
 17 20  2  0
 10  4  1  0
 20 12  1  0
M  END
$$$$
