_rank18
     RDKit          3D

 20 21  0  0  0  0  0  0  0  0999 V2000
   22.7020   -0.7754  -13.8791 C   0  0  0  0  0  0  0  0  0  0  0  0
   21.7272   -1.0521  -12.8100 C   0  0  2  0  0  0  0  0  0  0  0  0
   20.3310   -1.1490  -13.3785 C   0  0  0  0  0  0  0  0  0  0  0  0
   21.7953   -0.2295  -11.5580 C   0  0  1  0  0  0  0  0  0  0  0  0
   20.4612    0.1319  -11.0186 C   0  0  0  0  0  0  0  0  0  0  0  0
   20.0569   -0.3036   -9.6814 C   0  0  0  0  0  0  0  0  0  0  0  0
   21.1901   -0.5655   -8.7250 C   0  0  1  0  0  0  0  0  0  0  0  0
   20.7289   -1.1025   -7.4039 C   0  0  0  0  0  0  0  0  0  0  0  0
   22.1028   -1.5441   -9.4499 C   0  0  0  0  0  0  0  0  0  0  0  0
   22.7572   -0.6835  -10.5252 C   0  0  1  0  0  0  0  0  0  0  0  0
   23.9382   -1.2209  -10.9943 O   0  0  0  0  0  0  0  0  0  0  0  0
   25.2290   -1.0166  -10.5886 C   0  0  0  0  0  0  0  0  0  0  0  0
   26.2962   -1.4628  -11.3174 C   0  0  0  0  0  0  0  0  0  0  0  0
   27.5950   -1.2231  -10.8514 C   0  0  0  0  0  0  0  0  0  0  0  0
   28.6485   -1.6738  -11.5852 F   0  0  0  0  0  0  0  0  0  0  0  0
   27.8293   -0.5493   -9.6781 C   0  0  0  0  0  0  0  0  0  0  0  0
   26.7487   -0.0876   -8.9241 C   0  0  0  0  0  0  0  0  0  0  0  0
   26.9762    0.6264   -7.6958 C   0  0  0  0  0  0  0  0  0  0  0  0
   27.1666    1.2084   -6.7091 N   0  0  0  0  0  0  0  0  0  0  0  0
   25.4906   -0.3376   -9.4058 C   0  0  0  0  0  0  0  0  0  0  0  0
  2  1  1  6
  3  2  1  6
  2  4  1  0
  4  5  1  1
  5  6  1  1
  6  7  1  1
  7  8  1  1
  7  9  1  0
  9 10  1  6
 10 11  1  6
 11 12  1  0
 12 13  2  0
 13 14  1  0
 14 15  1  0
 14 16  2  0
 16 17  1  0
 17 18  1  0
 18 19  3  0
 17 20  2  0
 10  4  1  0
 20 12  1  0
M  END
$$$$
