_rank4
     RDKit          3D

 20 21  0  0  0  0  0  0  0  0999 V2000
   25.8484    0.2083  -13.9713 C   0  0  0  0  0  0  0  0  0  0  0  0
   26.1199    0.5984  -12.5770 C   0  0  2  0  0  0  0  0  0  0  0  0
   27.1813    1.6720  -12.5247 C   0  0  0  0  0  0  0  0  0  0  0  0
   26.3335   -0.4879  -11.5655 C   0  0  1  0  0  0  0  0  0  0  0  0
   27.7634   -0.7206  -11.2457 C   0  0  0  0  0  0  0  0  0  0  0  0
   28.2594   -0.5385   -9.8810 C   0  0  0  0  0  0  0  0  0  0  0  0
   27.2269   -0.7081   -8.7982 C   0  0  1  0  0  0  0  0  0  0  0  0
   27.7611   -0.4151   -7.4288 C   0  0  0  0  0  0  0  0  0  0  0  0
   26.0932    0.2326   -9.1801 C   0  0  0  0  0  0  0  0  0  0  0  0
   25.4492   -0.4608  -10.3758 C   0  0  1  0  0  0  0  0  0  0  0  0
   24.1513   -0.0486  -10.5972 O   0  0  0  0  0  0  0  0  0  0  0  0
   22.9874   -0.4081   -9.9736 C   0  0  0  0  0  0  0  0  0  0  0  0
   22.9163   -0.5862   -8.6200 C   0  0  0  0  0  0  0  0  0  0  0  0
   21.6964   -0.9539   -8.0384 C   0  0  0  0  0  0  0  0  0  0  0  0
   21.6393   -1.1295   -6.6903 F   0  0  0  0  0  0  0  0  0  0  0  0
   20.5638   -1.1415   -8.7917 C   0  0  0  0  0  0  0  0  0  0  0  0
   20.6220   -0.9626  -10.1751 C   0  0  0  0  0  0  0  0  0  0  0  0
   19.4430   -1.1482  -10.9787 C   0  0  0  0  0  0  0  0  0  0  0  0
   18.4901   -1.3070  -11.6232 N   0  0  0  0  0  0  0  0  0  0  0  0
   21.8292   -0.6032  -10.7146 C   0  0  0  0  0  0  0  0  0  0  0  0
  2  1  1  6
  3  2  1  6
  2  4  1  0
  4  5  1  1
  5  6  1  1
  6  7  1  1
  7  8  1  1
  7  9  1  0
  9 10  1  6
 10 11  1  6
 11 12  1  0
 12 13  2  0
 13 14  1  0
 14 15  1  0
 14 16  2  0
 16 17  1  0
 17 18  1  0
 18 19  3  0
 17 20  2  0
 10  4  1  0
 20 12  1  0
M  END
$$$$
