_rank19
     RDKit          3D

 20 21  0  0  0  0  0  0  0  0999 V2000
   21.2678   -0.8242  -14.0520 C   0  0  0  0  0  0  0  0  0  0  0  0
   22.1126   -0.5440  -12.8783 C   0  0  2  0  0  0  0  0  0  0  0  0
   23.0506   -1.6982  -12.6134 C   0  0  0  0  0  0  0  0  0  0  0  0
   21.4511   -0.0281  -11.6353 C   0  0  1  0  0  0  0  0  0  0  0  0
   20.1793   -0.7218  -11.3150 C   0  0  0  0  0  0  0  0  0  0  0  0
   20.0273   -1.4522  -10.0561 C   0  0  0  0  0  0  0  0  0  0  0  0
   20.9092   -0.9776   -8.9317 C   0  0  1  0  0  0  0  0  0  0  0  0
   20.7876   -1.8189   -7.6972 C   0  0  0  0  0  0  0  0  0  0  0  0
   22.3214   -0.9998   -9.4986 C   0  0  0  0  0  0  0  0  0  0  0  0
   22.3319    0.1826  -10.4615 C   0  0  1  0  0  0  0  0  0  0  0  0
   23.6054    0.6370  -10.7357 O   0  0  0  0  0  0  0  0  0  0  0  0
   24.8244    0.0735  -10.4730 C   0  0  0  0  0  0  0  0  0  0  0  0
   25.4661   -0.7207  -11.3823 C   0  0  0  0  0  0  0  0  0  0  0  0
   26.7128   -1.2692  -11.0565 C   0  0  0  0  0  0  0  0  0  0  0  0
   27.3403   -2.0591  -11.9696 F   0  0  0  0  0  0  0  0  0  0  0  0
   27.3130   -1.0315   -9.8446 C   0  0  0  0  0  0  0  0  0  0  0  0
   26.6691   -0.2220   -8.9068 C   0  0  0  0  0  0  0  0  0  0  0  0
   27.2869    0.0433   -7.6347 C   0  0  0  0  0  0  0  0  0  0  0  0
   27.7894    0.2659   -6.6117 N   0  0  0  0  0  0  0  0  0  0  0  0
   25.4508    0.2999   -9.2544 C   0  0  0  0  0  0  0  0  0  0  0  0
  2  1  1  6
  3  2  1  6
  2  4  1  0
  4  5  1  1
  5  6  1  1
  6  7  1  1
  7  8  1  1
  7  9  1  0
  9 10  1  6
 10 11  1  6
 11 12  1  0
 12 13  2  0
 13 14  1  0
 14 15  1  0
 14 16  2  0
 16 17  1  0
 17 18  1  0
 18 19  3  0
 17 20  2  0
 10  4  1  0
 20 12  1  0
M  END
$$$$
