_rank20
     RDKit          3D

 20 21  0  0  0  0  0  0  0  0999 V2000
   23.5442    0.0805  -13.9457 C   0  0  0  0  0  0  0  0  0  0  0  0
   23.0192   -0.8257  -12.9098 C   0  0  2  0  0  0  0  0  0  0  0  0
   22.5547   -2.1236  -13.5277 C   0  0  0  0  0  0  0  0  0  0  0  0
   22.0496   -0.2722  -11.9086 C   0  0  1  0  0  0  0  0  0  0  0  0
   20.7464   -0.9812  -11.8982 C   0  0  0  0  0  0  0  0  0  0  0  0
   20.2787   -1.6598  -10.6890 C   0  0  0  0  0  0  0  0  0  0  0  0
   20.8303   -1.1163   -9.3976 C   0  0  1  0  0  0  0  0  0  0  0  0
   20.3995   -1.9060   -8.1986 C   0  0  0  0  0  0  0  0  0  0  0  0
   22.3417   -1.1297   -9.5749 C   0  0  0  0  0  0  0  0  0  0  0  0
   22.5902    0.0099  -10.5572 C   0  0  1  0  0  0  0  0  0  0  0  0
   23.8858    0.4819  -10.5113 O   0  0  0  0  0  0  0  0  0  0  0  0
   25.0454   -0.1432  -10.1407 C   0  0  0  0  0  0  0  0  0  0  0  0
   25.5882   -1.1586  -10.8780 C   0  0  0  0  0  0  0  0  0  0  0  0
   26.7779   -1.7597  -10.4483 C   0  0  0  0  0  0  0  0  0  0  0  0
   27.3070   -2.7702  -11.1903 F   0  0  0  0  0  0  0  0  0  0  0  0
   27.4187   -1.3572   -9.3026 C   0  0  0  0  0  0  0  0  0  0  0  0
   26.8757   -0.3212   -8.5402 C   0  0  0  0  0  0  0  0  0  0  0  0
   27.5378    0.1179   -7.3406 C   0  0  0  0  0  0  0  0  0  0  0  0
   28.0636    0.4767   -6.3693 N   0  0  0  0  0  0  0  0  0  0  0  0
   25.7112    0.2468   -8.9861 C   0  0  0  0  0  0  0  0  0  0  0  0
  2  1  1  6
  3  2  1  6
  2  4  1  0
  4  5  1  1
  5  6  1  1
  6  7  1  1
  7  8  1  1
  7  9  1  0
  9 10  1  6
 10 11  1  6
 11 12  1  0
 12 13  2  0
 13 14  1  0
 14 15  1  0
 14 16  2  0
 16 17  1  0
 17 18  1  0
 18 19  3  0
 17 20  2  0
 10  4  1  0
 20 12  1  0
M  END
$$$$
