_rank3
     RDKit          3D

 20 21  0  0  0  0  0  0  0  0999 V2000
   27.7585    0.7492  -13.0728 C   0  0  0  0  0  0  0  0  0  0  0  0
   26.6432    0.0368  -12.4260 C   0  0  2  0  0  0  0  0  0  0  0  0
   25.4461    0.9469  -12.2819 C   0  0  0  0  0  0  0  0  0  0  0  0
   26.9316   -0.7545  -11.1852 C   0  0  1  0  0  0  0  0  0  0  0  0
   28.1540   -0.3068  -10.4734 C   0  0  0  0  0  0  0  0  0  0  0  0
   28.0744    0.1903   -9.0994 C   0  0  0  0  0  0  0  0  0  0  0  0
   26.9051   -0.3227   -8.3012 C   0  0  1  0  0  0  0  0  0  0  0  0
   26.8134    0.2910   -6.9368 C   0  0  0  0  0  0  0  0  0  0  0  0
   25.6796   -0.0122   -9.1484 C   0  0  0  0  0  0  0  0  0  0  0  0
   25.7787   -1.0173  -10.2909 C   0  0  1  0  0  0  0  0  0  0  0  0
   24.5682   -1.2379  -10.9149 O   0  0  0  0  0  0  0  0  0  0  0  0
   23.2908   -1.1370  -10.4346 C   0  0  0  0  0  0  0  0  0  0  0  0
   22.9961   -0.4257   -9.3048 C   0  0  0  0  0  0  0  0  0  0  0  0
   21.6692   -0.3581   -8.8620 C   0  0  0  0  0  0  0  0  0  0  0  0
   21.3894    0.3517   -7.7353 F   0  0  0  0  0  0  0  0  0  0  0  0
   20.6501   -0.9882   -9.5327 C   0  0  0  0  0  0  0  0  0  0  0  0
   20.9367   -1.7176  -10.6882 C   0  0  0  0  0  0  0  0  0  0  0  0
   19.8799   -2.3782  -11.4073 C   0  0  0  0  0  0  0  0  0  0  0  0
   19.0339   -2.9160  -11.9935 N   0  0  0  0  0  0  0  0  0  0  0  0
   22.2439   -1.7654  -11.0962 C   0  0  0  0  0  0  0  0  0  0  0  0
  2  1  1  1
  3  2  1  6
  2  4  1  0
  4  5  1  1
  5  6  1  1
  6  7  1  1
  7  8  1  1
  7  9  1  0
  9 10  1  6
 10 11  1  6
 11 12  1  0
 12 13  2  0
 13 14  1  0
 14 15  1  0
 14 16  2  0
 16 17  1  0
 17 18  1  0
 18 19  3  0
 17 20  2  0
 10  4  1  0
 20 12  1  0
M  END
$$$$
