_rank16
     RDKit          3D

 18 19  0  0  0  0  0  0  0  0999 V2000
   18.3971   -0.8675  -12.0417 C   0  0  0  0  0  0  0  0  0  0  0  0
   18.7426   -0.6270  -10.5816 C   0  0  2  0  0  0  0  0  0  0  0  0
   18.2805    0.7372  -10.1248 C   0  0  0  0  0  0  0  0  0  0  0  0
   20.2798   -0.6898  -10.4426 C   0  0  0  0  0  0  0  0  0  0  0  0
   21.2088   -0.0279  -10.4414 N   0  0  0  0  0  0  0  0  0  0  0  0
   22.4786   -0.3651  -10.2734 C   0  0  0  0  0  0  0  0  0  0  0  0
   23.5649    0.5019  -10.2862 O   0  0  0  0  0  0  0  0  0  0  0  0
   24.8784    0.2444  -10.3837 C   0  0  0  0  0  0  0  0  0  0  0  0
   25.5703   -0.0620  -11.5200 C   0  0  0  0  0  0  0  0  0  0  0  0
   26.9521   -0.3176  -11.5333 C   0  0  0  0  0  0  0  0  0  0  0  0
   27.5885   -0.6165  -12.6894 F   0  0  0  0  0  0  0  0  0  0  0  0
   27.6694   -0.2630  -10.3623 C   0  0  0  0  0  0  0  0  0  0  0  0
   26.9943    0.0474   -9.1877 C   0  0  0  0  0  0  0  0  0  0  0  0
   27.7866    0.1037   -7.9954 C   0  0  0  0  0  0  0  0  0  0  0  0
   28.4222    0.1440   -7.0035 N   0  0  0  0  0  0  0  0  0  0  0  0
   25.6517    0.2906   -9.2019 C   0  0  0  0  0  0  0  0  0  0  0  0
   22.6872   -1.6933  -10.0764 N   0  0  0  0  0  0  0  0  0  0  0  0
   20.9736   -2.3771  -10.1517 S   0  0  0  0  0  0  0  0  0  0  0  0
  1  2  1  1
  3  2  1  1
  2  4  1  6
  4  5  2  0
  5  6  1  0
  6  7  1  0
  7  8  1  0
  8  9  2  0
  9 10  1  0
 10 11  1  0
 10 12  2  0
 12 13  1  0
 13 14  1  0
 14 15  3  0
 13 16  2  0
  6 17  2  0
 17 18  1  0
 18  4  1  0
 16  8  1  0
M  END
$$$$
