_rank13
     RDKit          3D

 18 19  0  0  0  0  0  0  0  0999 V2000
   18.4165   -0.2507  -12.0915 C   0  0  0  0  0  0  0  0  0  0  0  0
   18.7319   -0.7668  -10.6974 C   0  0  2  0  0  0  0  0  0  0  0  0
   18.3526    0.2426   -9.6388 C   0  0  0  0  0  0  0  0  0  0  0  0
   20.2558   -1.0063  -10.6151 C   0  0  0  0  0  0  0  0  0  0  0  0
   21.2408   -0.4635  -10.4243 N   0  0  0  0  0  0  0  0  0  0  0  0
   22.4732   -0.9478  -10.3954 C   0  0  0  0  0  0  0  0  0  0  0  0
   23.6335   -0.2207  -10.1565 O   0  0  0  0  0  0  0  0  0  0  0  0
   24.8235   -0.6189   -9.6808 C   0  0  0  0  0  0  0  0  0  0  0  0
   25.1548   -1.8707   -9.2483 C   0  0  0  0  0  0  0  0  0  0  0  0
   26.4313   -2.2039   -8.7639 C   0  0  0  0  0  0  0  0  0  0  0  0
   26.7058   -3.4618   -8.3478 F   0  0  0  0  0  0  0  0  0  0  0  0
   27.4151   -1.2457   -8.7121 C   0  0  0  0  0  0  0  0  0  0  0  0
   27.1100    0.0389   -9.1462 C   0  0  0  0  0  0  0  0  0  0  0  0
   28.1710    0.9995   -9.0836 C   0  0  0  0  0  0  0  0  0  0  0  0
   29.0303    1.8046   -9.0281 N   0  0  0  0  0  0  0  0  0  0  0  0
   25.8622    0.3367   -9.6113 C   0  0  0  0  0  0  0  0  0  0  0  0
   22.5591   -2.2836  -10.6293 N   0  0  0  0  0  0  0  0  0  0  0  0
   20.7915   -2.7541  -10.8821 S   0  0  0  0  0  0  0  0  0  0  0  0
  1  2  1  1
  3  2  1  1
  2  4  1  6
  4  5  2  0
  5  6  1  0
  6  7  1  0
  7  8  1  0
  8  9  2  0
  9 10  1  0
 10 11  1  0
 10 12  2  0
 12 13  1  0
 13 14  1  0
 14 15  3  0
 13 16  2  0
  6 17  2  0
 17 18  1  0
 18  4  1  0
 16  8  1  0
M  END
$$$$
