_rank5
     RDKit          3D

 18 19  0  0  0  0  0  0  0  0999 V2000
   18.3209   -2.1390  -11.2564 C   0  0  0  0  0  0  0  0  0  0  0  0
   18.8335   -1.1640  -10.2095 C   0  0  2  0  0  0  0  0  0  0  0  0
   18.1395    0.1738  -10.3176 C   0  0  0  0  0  0  0  0  0  0  0  0
   20.3424   -0.9493  -10.4615 C   0  0  0  0  0  0  0  0  0  0  0  0
   21.3080   -0.6539   -9.9309 N   0  0  0  0  0  0  0  0  0  0  0  0
   22.5371   -0.5627  -10.4157 C   0  0  0  0  0  0  0  0  0  0  0  0
   23.6727   -0.1922   -9.7048 O   0  0  0  0  0  0  0  0  0  0  0  0
   24.9657   -0.2158  -10.0630 C   0  0  0  0  0  0  0  0  0  0  0  0
   25.4622   -0.3052  -11.3317 C   0  0  0  0  0  0  0  0  0  0  0  0
   26.8376   -0.3225  -11.6195 C   0  0  0  0  0  0  0  0  0  0  0  0
   27.2753   -0.4122  -12.8967 F   0  0  0  0  0  0  0  0  0  0  0  0
   27.7518   -0.2459  -10.5962 C   0  0  0  0  0  0  0  0  0  0  0  0
   27.2786   -0.1529   -9.2927 C   0  0  0  0  0  0  0  0  0  0  0  0
   28.2694   -0.0638   -8.2618 C   0  0  0  0  0  0  0  0  0  0  0  0
   29.0993    0.0103   -7.4280 N   0  0  0  0  0  0  0  0  0  0  0  0
   25.9377   -0.1389   -9.0401 C   0  0  0  0  0  0  0  0  0  0  0  0
   22.6461   -0.8670  -11.7356 N   0  0  0  0  0  0  0  0  0  0  0  0
   20.9039   -1.2756  -12.1911 S   0  0  0  0  0  0  0  0  0  0  0  0
  1  2  1  1
  3  2  1  1
  2  4  1  6
  4  5  2  0
  5  6  1  0
  6  7  1  0
  7  8  1  0
  8  9  2  0
  9 10  1  0
 10 11  1  0
 10 12  2  0
 12 13  1  0
 13 14  1  0
 14 15  3  0
 13 16  2  0
  6 17  2  0
 17 18  1  0
 18  4  1  0
 16  8  1  0
M  END
$$$$
