_rank2
     RDKit          3D

 18 19  0  0  0  0  0  0  0  0999 V2000
   28.1287   -1.5646   -9.8537 C   0  0  0  0  0  0  0  0  0  0  0  0
   27.5309   -0.2730   -9.3209 C   0  0  2  0  0  0  0  0  0  0  0  0
   27.4151   -0.3013   -7.8146 C   0  0  0  0  0  0  0  0  0  0  0  0
   26.1118   -0.1287   -9.9137 C   0  0  0  0  0  0  0  0  0  0  0  0
   25.1768   -0.7332  -10.1618 N   0  0  0  0  0  0  0  0  0  0  0  0
   24.0278   -0.3260  -10.6797 C   0  0  0  0  0  0  0  0  0  0  0  0
   22.9256   -1.1259  -10.9579 O   0  0  0  0  0  0  0  0  0  0  0  0
   21.6188   -0.9049  -10.7467 C   0  0  0  0  0  0  0  0  0  0  0  0
   21.0443    0.2556  -10.3145 C   0  0  0  0  0  0  0  0  0  0  0  0
   19.6602    0.4023  -10.1199 C   0  0  0  0  0  0  0  0  0  0  0  0
   19.1434    1.5765   -9.6899 F   0  0  0  0  0  0  0  0  0  0  0  0
   18.8183   -0.6550  -10.3695 C   0  0  0  0  0  0  0  0  0  0  0  0
   19.3721   -1.8506  -10.8119 C   0  0  0  0  0  0  0  0  0  0  0  0
   18.4535   -2.9194  -11.0693 C   0  0  0  0  0  0  0  0  0  0  0  0
   17.6824   -3.7851  -11.2826 N   0  0  0  0  0  0  0  0  0  0  0  0
   20.7196   -1.9671  -10.9919 C   0  0  0  0  0  0  0  0  0  0  0  0
   23.9716    1.0047  -10.9491 N   0  0  0  0  0  0  0  0  0  0  0  0
   25.6409    1.5859  -10.4151 S   0  0  0  0  0  0  0  0  0  0  0  0
  1  2  1  1
  3  2  1  1
  2  4  1  6
  4  5  2  0
  5  6  1  0
  6  7  1  0
  7  8  1  0
  8  9  2  0
  9 10  1  0
 10 11  1  0
 10 12  2  0
 12 13  1  0
 13 14  1  0
 14 15  3  0
 13 16  2  0
  6 17  2  0
 17 18  1  0
 18  4  1  0
 16  8  1  0
M  END
$$$$
