_rank12
     RDKit          3D

 18 19  0  0  0  0  0  0  0  0999 V2000
   19.1345    1.7187  -10.1683 C   0  0  0  0  0  0  0  0  0  0  0  0
   19.4568    0.7682  -11.3094 C   0  0  2  0  0  0  0  0  0  0  0  0
   18.2046    0.1276  -11.8616 C   0  0  0  0  0  0  0  0  0  0  0  0
   20.3674   -0.3483  -10.7522 C   0  0  0  0  0  0  0  0  0  0  0  0
   21.4648   -0.6146  -10.5905 N   0  0  0  0  0  0  0  0  0  0  0  0
   21.9926   -1.6977  -10.0405 C   0  0  0  0  0  0  0  0  0  0  0  0
   23.3487   -1.9557   -9.8776 O   0  0  0  0  0  0  0  0  0  0  0  0
   24.4164   -1.1949  -10.1642 C   0  0  0  0  0  0  0  0  0  0  0  0
   24.6966   -0.5937  -11.3575 C   0  0  0  0  0  0  0  0  0  0  0  0
   25.8424    0.1910  -11.5726 C   0  0  0  0  0  0  0  0  0  0  0  0
   26.0710    0.7647  -12.7765 F   0  0  0  0  0  0  0  0  0  0  0  0
   26.7424    0.3821  -10.5516 C   0  0  0  0  0  0  0  0  0  0  0  0
   26.4855   -0.2159   -9.3236 C   0  0  0  0  0  0  0  0  0  0  0  0
   27.4463    0.0218   -8.2878 C   0  0  0  0  0  0  0  0  0  0  0  0
   28.2225    0.2275   -7.4249 N   0  0  0  0  0  0  0  0  0  0  0  0
   25.3657   -0.9739   -9.1411 C   0  0  0  0  0  0  0  0  0  0  0  0
   21.0833   -2.6130   -9.6139 N   0  0  0  0  0  0  0  0  0  0  0  0
   19.4797   -1.8111  -10.0556 S   0  0  0  0  0  0  0  0  0  0  0  0
  1  2  1  1
  3  2  1  1
  2  4  1  1
  4  5  2  0
  5  6  1  0
  6  7  1  0
  7  8  1  0
  8  9  2  0
  9 10  1  0
 10 11  1  0
 10 12  2  0
 12 13  1  0
 13 14  1  0
 14 15  3  0
 13 16  2  0
  6 17  2  0
 17 18  1  0
 18  4  1  0
 16  8  1  0
M  END
$$$$
