_rank6
     RDKit          3D

 18 19  0  0  0  0  0  0  0  0999 V2000
   18.4361    0.7623   -9.9996 C   0  0  0  0  0  0  0  0  0  0  0  0
   18.7964   -0.4220  -10.8810 C   0  0  2  0  0  0  0  0  0  0  0  0
   18.1727   -1.6991  -10.3678 C   0  0  0  0  0  0  0  0  0  0  0  0
   20.3322   -0.5855  -10.8491 C   0  0  0  0  0  0  0  0  0  0  0  0
   21.2867   -0.0415  -10.5424 N   0  0  0  0  0  0  0  0  0  0  0  0
   22.5448   -0.4486  -10.6166 C   0  0  0  0  0  0  0  0  0  0  0  0
   23.6644    0.2747  -10.2224 O   0  0  0  0  0  0  0  0  0  0  0  0
   24.9676    0.0453  -10.4463 C   0  0  0  0  0  0  0  0  0  0  0  0
   25.5620   -0.1894  -11.6527 C   0  0  0  0  0  0  0  0  0  0  0  0
   26.9405   -0.4201  -11.7986 C   0  0  0  0  0  0  0  0  0  0  0  0
   27.4778   -0.6473  -13.0194 F   0  0  0  0  0  0  0  0  0  0  0  0
   27.7561   -0.4143  -10.6923 C   0  0  0  0  0  0  0  0  0  0  0  0
   27.1817   -0.1773   -9.4491 C   0  0  0  0  0  0  0  0  0  0  0  0
   28.0738   -0.1697   -8.3281 C   0  0  0  0  0  0  0  0  0  0  0  0
   28.8102   -0.1432   -7.4080 N   0  0  0  0  0  0  0  0  0  0  0  0
   25.8400    0.0431   -9.3346 C   0  0  0  0  0  0  0  0  0  0  0  0
   22.7040   -1.6943  -11.1356 N   0  0  0  0  0  0  0  0  0  0  0  0
   20.9634   -2.1996  -11.4890 S   0  0  0  0  0  0  0  0  0  0  0  0
  1  2  1  1
  3  2  1  1
  2  4  1  1
  4  5  2  0
  5  6  1  0
  6  7  1  0
  7  8  1  0
  8  9  2  0
  9 10  1  0
 10 11  1  0
 10 12  2  0
 12 13  1  0
 13 14  1  0
 14 15  3  0
 13 16  2  0
  6 17  2  0
 17 18  1  0
 18  4  1  0
 16  8  1  0
M  END
$$$$
