_rank17
     RDKit          3D

 18 19  0  0  0  0  0  0  0  0999 V2000
   18.4054   -1.8528  -10.5345 C   0  0  0  0  0  0  0  0  0  0  0  0
   19.0584   -0.8053  -11.4208 C   0  0  2  0  0  0  0  0  0  0  0  0
   18.8710   -1.1297  -12.8847 C   0  0  0  0  0  0  0  0  0  0  0  0
   20.5725   -0.8036  -11.1145 C   0  0  0  0  0  0  0  0  0  0  0  0
   21.5567   -0.3382  -11.4550 N   0  0  0  0  0  0  0  0  0  0  0  0
   22.7780   -0.5132  -10.9734 C   0  0  0  0  0  0  0  0  0  0  0  0
   23.9383    0.0907  -11.4437 O   0  0  0  0  0  0  0  0  0  0  0  0
   25.2211   -0.1190  -11.1100 C   0  0  0  0  0  0  0  0  0  0  0  0
   26.2118   -0.5901  -11.9226 C   0  0  0  0  0  0  0  0  0  0  0  0
   27.5355   -0.7798  -11.4903 C   0  0  0  0  0  0  0  0  0  0  0  0
   28.4789   -1.2497  -12.3388 F   0  0  0  0  0  0  0  0  0  0  0  0
   27.8806   -0.4846  -10.1931 C   0  0  0  0  0  0  0  0  0  0  0  0
   26.8949   -0.0019   -9.3405 C   0  0  0  0  0  0  0  0  0  0  0  0
   27.3056    0.3022   -8.0021 C   0  0  0  0  0  0  0  0  0  0  0  0
   27.6243    0.5573   -6.8963 N   0  0  0  0  0  0  0  0  0  0  0  0
   25.6167    0.1724   -9.7850 C   0  0  0  0  0  0  0  0  0  0  0  0
   22.8518   -1.3738   -9.9244 N   0  0  0  0  0  0  0  0  0  0  0  0
   21.0901   -1.8823   -9.7068 S   0  0  0  0  0  0  0  0  0  0  0  0
  1  2  1  1
  3  2  1  1
  2  4  1  1
  4  5  2  0
  5  6  1  0
  6  7  1  0
  7  8  1  0
  8  9  2  0
  9 10  1  0
 10 11  1  0
 10 12  2  0
 12 13  1  0
 13 14  1  0
 14 15  3  0
 13 16  2  0
  6 17  2  0
 17 18  1  0
 18  4  1  0
 16  8  1  0
M  END
$$$$
