_rank7
     RDKit          3D

 18 19  0  0  0  0  0  0  0  0999 V2000
   17.8708   -1.0072  -10.7072 C   0  0  0  0  0  0  0  0  0  0  0  0
   19.0714   -1.3967  -11.5534 C   0  0  2  0  0  0  0  0  0  0  0  0
   19.1997   -2.8980  -11.6675 C   0  0  0  0  0  0  0  0  0  0  0  0
   20.3381   -0.8536  -10.8557 C   0  0  0  0  0  0  0  0  0  0  0  0
   21.3747   -1.1723  -10.5020 N   0  0  0  0  0  0  0  0  0  0  0  0
   22.3183   -0.4525   -9.9141 C   0  0  0  0  0  0  0  0  0  0  0  0
   23.5652   -0.9124   -9.5069 O   0  0  0  0  0  0  0  0  0  0  0  0
   24.7947   -0.5527   -9.9067 C   0  0  0  0  0  0  0  0  0  0  0  0
   25.2245   -0.3977  -11.1933 C   0  0  0  0  0  0  0  0  0  0  0  0
   26.5355   -0.0154  -11.5250 C   0  0  0  0  0  0  0  0  0  0  0  0
   26.9084    0.1239  -12.8182 F   0  0  0  0  0  0  0  0  0  0  0  0
   27.4518    0.2223  -10.5287 C   0  0  0  0  0  0  0  0  0  0  0  0
   27.0453    0.0741   -9.2079 C   0  0  0  0  0  0  0  0  0  0  0  0
   28.0324    0.3440   -8.2053 C   0  0  0  0  0  0  0  0  0  0  0  0
   28.8440    0.5464   -7.3747 N   0  0  0  0  0  0  0  0  0  0  0  0
   25.7665   -0.2990   -8.9126 C   0  0  0  0  0  0  0  0  0  0  0  0
   21.9880    0.8497   -9.7095 N   0  0  0  0  0  0  0  0  0  0  0  0
   20.2802    0.9374  -10.4061 S   0  0  0  0  0  0  0  0  0  0  0  0
  1  2  1  1
  3  2  1  1
  2  4  1  1
  4  5  2  0
  5  6  1  0
  6  7  1  0
  7  8  1  0
  8  9  2  0
  9 10  1  0
 10 11  1  0
 10 12  2  0
 12 13  1  0
 13 14  1  0
 14 15  3  0
 13 16  2  0
  6 17  2  0
 17 18  1  0
 18  4  1  0
 16  8  1  0
M  END
$$$$
