_rank15
     RDKit          3D

 18 19  0  0  0  0  0  0  0  0999 V2000
   18.0664    0.8184  -10.6236 C   0  0  0  0  0  0  0  0  0  0  0  0
   19.3033    0.7779  -11.5054 C   0  0  2  0  0  0  0  0  0  0  0  0
   18.9544    0.3938  -12.9245 C   0  0  0  0  0  0  0  0  0  0  0  0
   20.2571   -0.2943  -10.9335 C   0  0  0  0  0  0  0  0  0  0  0  0
   21.3615   -0.4992  -10.7347 N   0  0  0  0  0  0  0  0  0  0  0  0
   21.9317   -1.5601  -10.1839 C   0  0  0  0  0  0  0  0  0  0  0  0
   23.2937   -1.7416   -9.9740 O   0  0  0  0  0  0  0  0  0  0  0  0
   24.3092   -0.8694  -10.0686 C   0  0  0  0  0  0  0  0  0  0  0  0
   24.3417    0.2709  -10.8185 C   0  0  0  0  0  0  0  0  0  0  0  0
   25.4508    1.1329  -10.8594 C   0  0  0  0  0  0  0  0  0  0  0  0
   25.4292    2.2514  -11.6205 F   0  0  0  0  0  0  0  0  0  0  0  0
   26.5713    0.8417  -10.1187 C   0  0  0  0  0  0  0  0  0  0  0  0
   26.5697   -0.3118   -9.3435 C   0  0  0  0  0  0  0  0  0  0  0  0
   27.7553   -0.5663   -8.5806 C   0  0  0  0  0  0  0  0  0  0  0  0
   28.7421   -0.7737   -7.9699 N   0  0  0  0  0  0  0  0  0  0  0  0
   25.4799   -1.1326   -9.3221 C   0  0  0  0  0  0  0  0  0  0  0  0
   21.0630   -2.5352   -9.8084 N   0  0  0  0  0  0  0  0  0  0  0  0
   19.4323   -1.8198  -10.2968 S   0  0  0  0  0  0  0  0  0  0  0  0
  1  2  1  1
  3  2  1  1
  2  4  1  1
  4  5  2  0
  5  6  1  0
  6  7  1  0
  7  8  1  0
  8  9  2  0
  9 10  1  0
 10 11  1  0
 10 12  2  0
 12 13  1  0
 13 14  1  0
 14 15  3  0
 13 16  2  0
  6 17  2  0
 17 18  1  0
 18  4  1  0
 16  8  1  0
M  END
$$$$
