_rank3
     RDKit          3D

 18 19  0  0  0  0  0  0  0  0999 V2000
   27.2763   -1.5607   -8.1774 C   0  0  0  0  0  0  0  0  0  0  0  0
   27.3928   -0.2370   -8.9145 C   0  0  2  0  0  0  0  0  0  0  0  0
   26.8695    0.9066   -8.0767 C   0  0  0  0  0  0  0  0  0  0  0  0
   26.5348   -0.3317  -10.1956 C   0  0  0  0  0  0  0  0  0  0  0  0
   25.5637   -0.7777  -10.5947 N   0  0  0  0  0  0  0  0  0  0  0  0
   25.0306   -0.6804  -11.8032 C   0  0  0  0  0  0  0  0  0  0  0  0
   23.8364   -1.2564  -12.2204 O   0  0  0  0  0  0  0  0  0  0  0  0
   22.6570   -1.3607  -11.5886 C   0  0  0  0  0  0  0  0  0  0  0  0
   21.7844   -2.4087  -11.6517 C   0  0  0  0  0  0  0  0  0  0  0  0
   20.5651   -2.4370  -10.9535 C   0  0  0  0  0  0  0  0  0  0  0  0
   19.7370   -3.5025  -11.0518 F   0  0  0  0  0  0  0  0  0  0  0  0
   20.2064   -1.3739  -10.1598 C   0  0  0  0  0  0  0  0  0  0  0  0
   21.0737   -0.2913  -10.0734 C   0  0  0  0  0  0  0  0  0  0  0  0
   20.6614    0.7870   -9.2250 C   0  0  0  0  0  0  0  0  0  0  0  0
   20.3028    1.6711   -8.5326 N   0  0  0  0  0  0  0  0  0  0  0  0
   22.2515   -0.2884  -10.7623 C   0  0  0  0  0  0  0  0  0  0  0  0
   25.7574    0.0590  -12.6815 N   0  0  0  0  0  0  0  0  0  0  0  0
   27.2057    0.5750  -11.6587 S   0  0  0  0  0  0  0  0  0  0  0  0
  1  2  1  1
  3  2  1  1
  2  4  1  6
  4  5  2  0
  5  6  1  0
  6  7  1  0
  7  8  1  0
  8  9  2  0
  9 10  1  0
 10 11  1  0
 10 12  2  0
 12 13  1  0
 13 14  1  0
 14 15  3  0
 13 16  2  0
  6 17  2  0
 17 18  1  0
 18  4  1  0
 16  8  1  0
M  END
$$$$
