_rank8
     RDKit          3D

 18 19  0  0  0  0  0  0  0  0999 V2000
   18.2492    0.6129  -10.8376 C   0  0  0  0  0  0  0  0  0  0  0  0
   18.6123   -0.8606  -10.7594 C   0  0  2  0  0  0  0  0  0  0  0  0
   18.1789   -1.4645   -9.4438 C   0  0  0  0  0  0  0  0  0  0  0  0
   20.1493   -0.9753  -10.8626 C   0  0  0  0  0  0  0  0  0  0  0  0
   21.1001   -0.8857  -10.2388 N   0  0  0  0  0  0  0  0  0  0  0  0
   22.3612   -1.0646  -10.6017 C   0  0  0  0  0  0  0  0  0  0  0  0
   23.4758   -0.9355   -9.7813 O   0  0  0  0  0  0  0  0  0  0  0  0
   24.7324   -0.5690  -10.0775 C   0  0  0  0  0  0  0  0  0  0  0  0
   25.2130   -0.2107  -11.3040 C   0  0  0  0  0  0  0  0  0  0  0  0
   26.5494    0.1624  -11.5271 C   0  0  0  0  0  0  0  0  0  0  0  0
   26.9728    0.5091  -12.7645 F   0  0  0  0  0  0  0  0  0  0  0  0
   27.4392    0.1783  -10.4798 C   0  0  0  0  0  0  0  0  0  0  0  0
   26.9810   -0.1804   -9.2176 C   0  0  0  0  0  0  0  0  0  0  0  0
   27.9425   -0.1372   -8.1565 C   0  0  0  0  0  0  0  0  0  0  0  0
   28.7486   -0.0988   -7.2973 N   0  0  0  0  0  0  0  0  0  0  0  0
   25.6782   -0.5395   -9.0280 C   0  0  0  0  0  0  0  0  0  0  0  0
   22.5292   -1.4016  -11.9073 N   0  0  0  0  0  0  0  0  0  0  0  0
   20.7920   -1.4354  -12.5324 S   0  0  0  0  0  0  0  0  0  0  0  0
  1  2  1  1
  3  2  1  1
  2  4  1  1
  4  5  2  0
  5  6  1  0
  6  7  1  0
  7  8  1  0
  8  9  2  0
  9 10  1  0
 10 11  1  0
 10 12  2  0
 12 13  1  0
 13 14  1  0
 14 15  3  0
 13 16  2  0
  6 17  2  0
 17 18  1  0
 18  4  1  0
 16  8  1  0
M  END
$$$$
