_rank19
     RDKit          3D

 18 19  0  0  0  0  0  0  0  0999 V2000
   20.8146   -3.3161  -11.2179 C   0  0  0  0  0  0  0  0  0  0  0  0
   20.2057   -1.9538  -11.5052 C   0  0  2  0  0  0  0  0  0  0  0  0
   20.3839   -1.5666  -12.9548 C   0  0  0  0  0  0  0  0  0  0  0  0
   20.9407   -0.9133  -10.6315 C   0  0  0  0  0  0  0  0  0  0  0  0
   21.9826   -0.6167  -10.2741 N   0  0  0  0  0  0  0  0  0  0  0  0
   22.3470    0.3918   -9.4967 C   0  0  0  0  0  0  0  0  0  0  0  0
   23.6446    0.6923   -9.0992 O   0  0  0  0  0  0  0  0  0  0  0  0
   24.8198    0.2367   -9.5600 C   0  0  0  0  0  0  0  0  0  0  0  0
   25.0672   -0.2852  -10.7971 C   0  0  0  0  0  0  0  0  0  0  0  0
   26.3343   -0.7401  -11.2002 C   0  0  0  0  0  0  0  0  0  0  0  0
   26.5239   -1.2486  -12.4396 F   0  0  0  0  0  0  0  0  0  0  0  0
   27.3958   -0.6683  -10.3301 C   0  0  0  0  0  0  0  0  0  0  0  0
   27.1771   -0.1409   -9.0629 C   0  0  0  0  0  0  0  0  0  0  0  0
   28.3161   -0.0762   -8.1964 C   0  0  0  0  0  0  0  0  0  0  0  0
   29.2633   -0.0359   -7.4959 N   0  0  0  0  0  0  0  0  0  0  0  0
   25.9366    0.2931   -8.6960 C   0  0  0  0  0  0  0  0  0  0  0  0
   21.3209    1.1749   -9.0720 N   0  0  0  0  0  0  0  0  0  0  0  0
   19.8573    0.3661   -9.8554 S   0  0  0  0  0  0  0  0  0  0  0  0
  1  2  1  1
  3  2  1  1
  2  4  1  1
  4  5  2  0
  5  6  1  0
  6  7  1  0
  7  8  1  0
  8  9  2  0
  9 10  1  0
 10 11  1  0
 10 12  2  0
 12 13  1  0
 13 14  1  0
 14 15  3  0
 13 16  2  0
  6 17  2  0
 17 18  1  0
 18  4  1  0
 16  8  1  0
M  END
$$$$
