_rank10
     RDKit          3D

 18 19  0  0  0  0  0  0  0  0999 V2000
   18.9676   -0.3826   -9.5219 C   0  0  0  0  0  0  0  0  0  0  0  0
   20.3350    0.1682   -9.1533 C   0  0  2  0  0  0  0  0  0  0  0  0
   20.3487    1.6786   -9.1947 C   0  0  0  0  0  0  0  0  0  0  0  0
   21.3515   -0.3546  -10.1924 C   0  0  0  0  0  0  0  0  0  0  0  0
   22.4721   -0.4385  -10.3884 N   0  0  0  0  0  0  0  0  0  0  0  0
   23.1051   -0.9832  -11.4164 C   0  0  0  0  0  0  0  0  0  0  0  0
   24.4828   -1.0476  -11.5893 O   0  0  0  0  0  0  0  0  0  0  0  0
   25.4705   -1.0645  -10.6811 C   0  0  0  0  0  0  0  0  0  0  0  0
   26.2793   -2.1196  -10.3708 C   0  0  0  0  0  0  0  0  0  0  0  0
   27.2953   -2.0507   -9.4023 C   0  0  0  0  0  0  0  0  0  0  0  0
   28.0688   -3.1280   -9.1343 F   0  0  0  0  0  0  0  0  0  0  0  0
   27.5105   -0.8781   -8.7185 C   0  0  0  0  0  0  0  0  0  0  0  0
   26.7044    0.2154   -9.0119 C   0  0  0  0  0  0  0  0  0  0  0  0
   26.9744    1.4180   -8.2816 C   0  0  0  0  0  0  0  0  0  0  0  0
   27.1914    2.4184   -7.6971 N   0  0  0  0  0  0  0  0  0  0  0  0
   25.7240    0.1220   -9.9564 C   0  0  0  0  0  0  0  0  0  0  0  0
   22.2882   -1.5124  -12.3646 N   0  0  0  0  0  0  0  0  0  0  0  0
   20.6099   -1.1706  -11.6747 S   0  0  0  0  0  0  0  0  0  0  0  0
  1  2  1  1
  3  2  1  1
  2  4  1  6
  4  5  2  0
  5  6  1  0
  6  7  1  0
  7  8  1  0
  8  9  2  0
  9 10  1  0
 10 11  1  0
 10 12  2  0
 12 13  1  0
 13 14  1  0
 14 15  3  0
 13 16  2  0
  6 17  2  0
 17 18  1  0
 18  4  1  0
 16  8  1  0
M  END
$$$$
