_rank19
     RDKit          3D

 20 21  0  0  0  0  0  0  0  0999 V2000
   28.0195   -2.2578  -10.8372 C   0  0  0  0  0  0  0  0  0  0  0  0
   28.3158   -0.8142  -10.4301 C   0  0  1  0  0  0  0  0  0  0  0  0
   27.2091    0.1048  -10.9051 C   0  0  0  0  0  0  0  0  0  0  0  0
   26.0420   -0.4005  -10.0823 C   0  0  2  0  0  0  0  0  0  0  0  0
   25.0667    0.6197   -9.8259 N   0  0  0  0  0  0  0  0  0  0  0  0
   24.2549    1.0628  -10.9305 C   0  0  0  0  0  0  0  0  0  0  0  0
   24.1674    2.2808  -11.1705 O   0  0  0  0  0  0  0  0  0  0  0  0
   23.5537    0.1514  -11.7510 N   0  0  0  0  0  0  0  0  0  0  0  0
   22.4390   -0.6191  -11.4165 C   0  0  0  0  0  0  0  0  0  0  0  0
   22.4128   -1.2320  -10.1596 C   0  0  0  0  0  0  0  0  0  0  0  0
   21.3633   -2.0113   -9.7317 C   0  0  0  0  0  0  0  0  0  0  0  0
   21.3224   -2.6063   -8.5295 F   0  0  0  0  0  0  0  0  0  0  0  0
   20.2860   -2.2041  -10.5675 C   0  0  0  0  0  0  0  0  0  0  0  0
   20.2718   -1.6236  -11.8026 C   0  0  0  0  0  0  0  0  0  0  0  0
   19.1405   -1.8329  -12.6658 C   0  0  0  0  0  0  0  0  0  0  0  0
   18.2405   -2.0099  -13.3756 N   0  0  0  0  0  0  0  0  0  0  0  0
   21.3564   -0.8370  -12.2054 C   0  0  0  0  0  0  0  0  0  0  0  0
   26.7433   -0.8306   -8.8409 C   0  0  0  0  0  0  0  0  0  0  0  0
   26.1708   -1.1954   -7.7895 O   0  0  0  0  0  0  0  0  0  0  0  0
   28.1158   -0.7716   -9.0096 O   0  0  0  0  0  0  0  0  0  0  0  0
  1  2  1  6
  2  3  1  0
  3  4  1  6
  4  5  1  1
  5  6  1  0
  6  7  2  0
  6  8  1  0
  8  9  1  0
  9 10  2  0
 10 11  1  0
 11 12  1  0
 11 13  2  0
 13 14  1  0
 14 15  1  0
 15 16  3  0
 14 17  2  0
  4 18  1  0
 18 19  2  0
 18 20  1  0
  2 20  1  1
 17  9  1  0
M  END
$$$$
