_rank8
     RDKit          3D

 20 21  0  0  0  0  0  0  0  0999 V2000
   28.4457   -1.6777   -9.9756 C   0  0  0  0  0  0  0  0  0  0  0  0
   28.2630   -0.1801  -10.2238 C   0  0  1  0  0  0  0  0  0  0  0  0
   27.0125    0.0695  -11.0416 C   0  0  0  0  0  0  0  0  0  0  0  0
   25.9404   -0.3959  -10.0781 C   0  0  2  0  0  0  0  0  0  0  0  0
   24.6902    0.2785  -10.2778 N   0  0  0  0  0  0  0  0  0  0  0  0
   23.4926   -0.5220  -10.2938 C   0  0  0  0  0  0  0  0  0  0  0  0
   23.4074   -1.5040   -9.5341 O   0  0  0  0  0  0  0  0  0  0  0  0
   22.4094   -0.2229  -11.1498 N   0  0  0  0  0  0  0  0  0  0  0  0
   21.0522   -0.4626  -10.9291 C   0  0  0  0  0  0  0  0  0  0  0  0
   20.2971    0.5379  -10.3087 C   0  0  0  0  0  0  0  0  0  0  0  0
   18.9539    0.4032  -10.0452 C   0  0  0  0  0  0  0  0  0  0  0  0
   18.2151    1.3529   -9.4509 F   0  0  0  0  0  0  0  0  0  0  0  0
   18.3133   -0.7622  -10.4028 C   0  0  0  0  0  0  0  0  0  0  0  0
   19.0136   -1.7636  -11.0104 C   0  0  0  0  0  0  0  0  0  0  0  0
   18.3326   -2.9757  -11.3788 C   0  0  0  0  0  0  0  0  0  0  0  0
   17.7670   -3.9424  -11.6802 N   0  0  0  0  0  0  0  0  0  0  0  0
   20.3790   -1.5927  -11.2633 C   0  0  0  0  0  0  0  0  0  0  0  0
   26.5666   -0.0418   -8.7741 C   0  0  0  0  0  0  0  0  0  0  0  0
   25.9894   -0.1075   -7.6656 O   0  0  0  0  0  0  0  0  0  0  0  0
   27.8753    0.3703   -8.9564 O   0  0  0  0  0  0  0  0  0  0  0  0
  1  2  1  6
  2  3  1  0
  3  4  1  6
  4  5  1  6
  5  6  1  0
  6  7  2  0
  6  8  1  0
  8  9  1  0
  9 10  2  0
 10 11  1  0
 11 12  1  0
 11 13  2  0
 13 14  1  0
 14 15  1  0
 15 16  3  0
 14 17  2  0
  4 18  1  0
 18 19  2  0
 18 20  1  0
  2 20  1  1
 17  9  1  0
M  END
$$$$
