_rank4
     RDKit          3D

 20 21  0  0  0  0  0  0  0  0999 V2000
   28.1529   -0.5856   -7.7430 C   0  0  0  0  0  0  0  0  0  0  0  0
   28.3185   -1.1922   -9.1367 C   0  0  1  0  0  0  0  0  0  0  0  0
   27.0207   -1.8265   -9.5928 C   0  0  0  0  0  0  0  0  0  0  0  0
   26.1261   -0.6088   -9.6979 C   0  0  2  0  0  0  0  0  0  0  0  0
   25.0884   -0.7707  -10.6750 N   0  0  0  0  0  0  0  0  0  0  0  0
   23.7233   -0.6898  -10.2218 C   0  0  0  0  0  0  0  0  0  0  0  0
   23.4772   -0.8131   -9.0082 O   0  0  0  0  0  0  0  0  0  0  0  0
   22.6534   -0.4739  -11.1186 N   0  0  0  0  0  0  0  0  0  0  0  0
   21.2859   -0.5862  -10.8627 C   0  0  0  0  0  0  0  0  0  0  0  0
   20.6156   -1.7178  -11.3385 C   0  0  0  0  0  0  0  0  0  0  0  0
   19.2703   -1.9256  -11.1412 C   0  0  0  0  0  0  0  0  0  0  0  0
   18.6122   -3.0052  -11.5909 F   0  0  0  0  0  0  0  0  0  0  0  0
   18.5408   -0.9865  -10.4468 C   0  0  0  0  0  0  0  0  0  0  0  0
   19.1566    0.1322   -9.9654 C   0  0  0  0  0  0  0  0  0  0  0  0
   18.3832    1.1053   -9.2418 C   0  0  0  0  0  0  0  0  0  0  0  0
   17.7427    1.8808   -8.6643 N   0  0  0  0  0  0  0  0  0  0  0  0
   20.5268    0.3115  -10.1845 C   0  0  0  0  0  0  0  0  0  0  0  0
   27.1162    0.4292  -10.0981 C   0  0  0  0  0  0  0  0  0  0  0  0
   26.8242    1.5948  -10.4477 O   0  0  0  0  0  0  0  0  0  0  0  0
   28.4044   -0.0724  -10.0303 O   0  0  0  0  0  0  0  0  0  0  0  0
  1  2  1  6
  2  3  1  0
  3  4  1  6
  4  5  1  6
  5  6  1  0
  6  7  2  0
  6  8  1  0
  8  9  1  0
  9 10  2  0
 10 11  1  0
 11 12  1  0
 11 13  2  0
 13 14  1  0
 14 15  1  0
 15 16  3  0
 14 17  2  0
  4 18  1  0
 18 19  2  0
 18 20  1  0
  2 20  1  6
 17  9  1  0
M  END
$$$$
