_rank2
     RDKit          3D

 20 21  0  0  0  0  0  0  0  0999 V2000
   28.5541    0.3232   -8.5064 C   0  0  0  0  0  0  0  0  0  0  0  0
   27.0493    0.1138   -8.3352 C   0  0  1  0  0  0  0  0  0  0  0  0
   26.2905    0.8145   -9.4434 C   0  0  0  0  0  0  0  0  0  0  0  0
   26.7544    0.0281  -10.6520 C   0  0  2  0  0  0  0  0  0  0  0  0
   25.7807    0.0123  -11.7054 N   0  0  0  0  0  0  0  0  0  0  0  0
   24.4526   -0.4430  -11.3828 C   0  0  0  0  0  0  0  0  0  0  0  0
   24.2193   -1.6651  -11.3524 O   0  0  0  0  0  0  0  0  0  0  0  0
   23.4047    0.4610  -11.0992 N   0  0  0  0  0  0  0  0  0  0  0  0
   22.0657    0.1652  -10.8392 C   0  0  0  0  0  0  0  0  0  0  0  0
   21.5887   -1.1017  -11.1909 C   0  0  0  0  0  0  0  0  0  0  0  0
   20.2877   -1.4941  -10.9785 C   0  0  0  0  0  0  0  0  0  0  0  0
   19.8141   -2.7052  -11.3099 F   0  0  0  0  0  0  0  0  0  0  0  0
   19.4069   -0.6108  -10.3951 C   0  0  0  0  0  0  0  0  0  0  0  0
   19.8319    0.6356  -10.0367 C   0  0  0  0  0  0  0  0  0  0  0  0
   18.9019    1.5486   -9.4282 C   0  0  0  0  0  0  0  0  0  0  0  0
   18.1529    2.2964   -8.9540 N   0  0  0  0  0  0  0  0  0  0  0  0
   21.1624    1.0014  -10.2675 C   0  0  0  0  0  0  0  0  0  0  0  0
   26.9492   -1.3193  -10.0483 C   0  0  0  0  0  0  0  0  0  0  0  0
   27.1986   -2.3607  -10.6960 O   0  0  0  0  0  0  0  0  0  0  0  0
   26.8166   -1.2618   -8.6718 O   0  0  0  0  0  0  0  0  0  0  0  0
  1  2  1  6
  2  3  1  0
  3  4  1  6
  4  5  1  6
  5  6  1  0
  6  7  2  0
  6  8  1  0
  8  9  1  0
  9 10  2  0
 10 11  1  0
 11 12  1  0
 11 13  2  0
 13 14  1  0
 14 15  1  0
 15 16  3  0
 14 17  2  0
  4 18  1  0
 18 19  2  0
 18 20  1  0
  2 20  1  6
 17  9  1  0
M  END
$$$$
