_rank13
     RDKit          3D

 20 21  0  0  0  0  0  0  0  0999 V2000
   18.0505    0.2533  -11.4158 C   0  0  0  0  0  0  0  0  0  0  0  0
   18.1433   -1.2421  -11.1112 C   0  0  1  0  0  0  0  0  0  0  0  0
   19.3920   -1.8304  -11.7353 C   0  0  0  0  0  0  0  0  0  0  0  0
   20.4714   -1.1093  -10.9548 C   0  0  2  0  0  0  0  0  0  0  0  0
   21.6803   -1.8746  -10.8513 N   0  0  0  0  0  0  0  0  0  0  0  0
   22.9309   -1.1616  -10.9054 C   0  0  0  0  0  0  0  0  0  0  0  0
   22.9631   -0.0285  -11.4190 O   0  0  0  0  0  0  0  0  0  0  0  0
   24.1249   -1.7138  -10.3907 N   0  0  0  0  0  0  0  0  0  0  0  0
   25.3912   -1.1281  -10.3500 C   0  0  0  0  0  0  0  0  0  0  0  0
   25.8194   -0.4022  -11.4661 C   0  0  0  0  0  0  0  0  0  0  0  0
   27.0477    0.2137  -11.5287 C   0  0  0  0  0  0  0  0  0  0  0  0
   27.4738    0.9136  -12.5915 F   0  0  0  0  0  0  0  0  0  0  0  0
   27.9018    0.1189  -10.4526 C   0  0  0  0  0  0  0  0  0  0  0  0
   27.5225   -0.5803   -9.3437 C   0  0  0  0  0  0  0  0  0  0  0  0
   28.4239   -0.6717   -8.2266 C   0  0  0  0  0  0  0  0  0  0  0  0
   29.1664   -0.7445   -7.3387 N   0  0  0  0  0  0  0  0  0  0  0  0
   26.2657   -1.1943   -9.3142 C   0  0  0  0  0  0  0  0  0  0  0  0
   19.7976   -0.9444   -9.6370 C   0  0  0  0  0  0  0  0  0  0  0  0
   20.3551   -0.5193   -8.6003 O   0  0  0  0  0  0  0  0  0  0  0  0
   18.4695   -1.3259   -9.7160 O   0  0  0  0  0  0  0  0  0  0  0  0
  1  2  1  6
  2  3  1  0
  3  4  1  6
  4  5  1  1
  5  6  1  0
  6  7  2  0
  6  8  1  0
  8  9  1  0
  9 10  2  0
 10 11  1  0
 11 12  1  0
 11 13  2  0
 13 14  1  0
 14 15  1  0
 15 16  3  0
 14 17  2  0
  4 18  1  0
 18 19  2  0
 18 20  1  0
  2 20  1  1
 17  9  1  0
M  END
$$$$
