_rank6
     RDKit          3D

 20 21  0  0  0  0  0  0  0  0999 V2000
   17.7437   -0.0973  -11.1213 C   0  0  0  0  0  0  0  0  0  0  0  0
   18.3061   -1.0627  -10.0776 C   0  0  1  0  0  0  0  0  0  0  0  0
   19.2325   -2.0661  -10.7332 C   0  0  0  0  0  0  0  0  0  0  0  0
   20.3501   -1.1599  -11.2066 C   0  0  2  0  0  0  0  0  0  0  0  0
   21.6136   -1.8353  -11.2780 N   0  0  0  0  0  0  0  0  0  0  0  0
   22.8069   -1.0396  -11.1424 C   0  0  0  0  0  0  0  0  0  0  0  0
   22.7614    0.1750  -11.4096 O   0  0  0  0  0  0  0  0  0  0  0  0
   24.0304   -1.6007  -10.7137 N   0  0  0  0  0  0  0  0  0  0  0  0
   25.2724   -0.9717  -10.6140 C   0  0  0  0  0  0  0  0  0  0  0  0
   25.9785   -0.7132  -11.7933 C   0  0  0  0  0  0  0  0  0  0  0  0
   27.2091   -0.0990  -11.8063 C   0  0  0  0  0  0  0  0  0  0  0  0
   27.8995    0.1562  -12.9284 F   0  0  0  0  0  0  0  0  0  0  0  0
   27.7814    0.2827  -10.6133 C   0  0  0  0  0  0  0  0  0  0  0  0
   27.1256    0.0489   -9.4396 C   0  0  0  0  0  0  0  0  0  0  0  0
   27.7343    0.4525   -8.2005 C   0  0  0  0  0  0  0  0  0  0  0  0
   28.2434    0.7771   -7.2102 N   0  0  0  0  0  0  0  0  0  0  0  0
   25.8751   -0.5782   -9.4634 C   0  0  0  0  0  0  0  0  0  0  0  0
   20.3310   -0.1172  -10.1434 C   0  0  0  0  0  0  0  0  0  0  0  0
   21.1839    0.7904  -10.0204 O   0  0  0  0  0  0  0  0  0  0  0  0
   19.2399   -0.2896   -9.3094 O   0  0  0  0  0  0  0  0  0  0  0  0
  1  2  1  6
  2  3  1  0
  3  4  1  6
  4  5  1  1
  5  6  1  0
  6  7  2  0
  6  8  1  0
  8  9  1  0
  9 10  2  0
 10 11  1  0
 11 12  1  0
 11 13  2  0
 13 14  1  0
 14 15  1  0
 15 16  3  0
 14 17  2  0
  4 18  1  0
 18 19  2  0
 18 20  1  0
  2 20  1  1
 17  9  1  0
M  END
$$$$
