_rank5
     RDKit          3D

 20 21  0  0  0  0  0  0  0  0999 V2000
   28.3530   -0.3432   -8.2832 C   0  0  0  0  0  0  0  0  0  0  0  0
   26.8259   -0.4114   -8.3160 C   0  0  1  0  0  0  0  0  0  0  0  0
   26.2662    0.7159   -9.1592 C   0  0  0  0  0  0  0  0  0  0  0  0
   26.7971    0.3428  -10.5279 C   0  0  2  0  0  0  0  0  0  0  0  0
   25.9555    0.8108  -11.5911 N   0  0  0  0  0  0  0  0  0  0  0  0
   24.5871    0.3608  -11.6095 C   0  0  0  0  0  0  0  0  0  0  0  0
   24.2860   -0.6429  -12.2808 O   0  0  0  0  0  0  0  0  0  0  0  0
   23.5747    1.0284  -10.8850 N   0  0  0  0  0  0  0  0  0  0  0  0
   22.3126    0.5461  -10.5345 C   0  0  0  0  0  0  0  0  0  0  0  0
   22.1546   -0.8341  -10.3726 C   0  0  0  0  0  0  0  0  0  0  0  0
   20.9548   -1.4121  -10.0288 C   0  0  0  0  0  0  0  0  0  0  0  0
   20.7861   -2.7339   -9.8696 F   0  0  0  0  0  0  0  0  0  0  0  0
   19.8541   -0.6080   -9.8328 C   0  0  0  0  0  0  0  0  0  0  0  0
   19.9655    0.7441   -9.9808 C   0  0  0  0  0  0  0  0  0  0  0  0
   18.8083    1.5727   -9.7731 C   0  0  0  0  0  0  0  0  0  0  0  0
   17.8675    2.2341   -9.6230 N   0  0  0  0  0  0  0  0  0  0  0  0
   21.2014    1.2983  -10.3312 C   0  0  0  0  0  0  0  0  0  0  0  0
   26.8009   -1.1431  -10.4284 C   0  0  0  0  0  0  0  0  0  0  0  0
   27.0316   -1.9202  -11.3819 O   0  0  0  0  0  0  0  0  0  0  0  0
   26.5140   -1.5471   -9.1361 O   0  0  0  0  0  0  0  0  0  0  0  0
  1  2  1  6
  2  3  1  0
  3  4  1  6
  4  5  1  6
  5  6  1  0
  6  7  2  0
  6  8  1  0
  8  9  1  0
  9 10  2  0
 10 11  1  0
 11 12  1  0
 11 13  2  0
 13 14  1  0
 14 15  1  0
 15 16  3  0
 14 17  2  0
  4 18  1  0
 18 19  2  0
 18 20  1  0
  2 20  1  6
 17  9  1  0
M  END
$$$$
