_rank15
     RDKit          3D

 20 21  0  0  0  0  0  0  0  0999 V2000
   17.5446   -0.5958  -11.8357 C   0  0  0  0  0  0  0  0  0  0  0  0
   17.9492   -2.0361  -11.5201 C   0  0  1  0  0  0  0  0  0  0  0  0
   19.2783   -2.3641  -12.1687 C   0  0  0  0  0  0  0  0  0  0  0  0
   20.2032   -1.4263  -11.4208 C   0  0  2  0  0  0  0  0  0  0  0  0
   21.5454   -1.9257  -11.3395 N   0  0  0  0  0  0  0  0  0  0  0  0
   22.5842   -0.9974  -10.9726 C   0  0  0  0  0  0  0  0  0  0  0  0
   22.3183    0.2163  -10.9029 O   0  0  0  0  0  0  0  0  0  0  0  0
   23.8996   -1.4272  -10.6889 N   0  0  0  0  0  0  0  0  0  0  0  0
   25.0017   -0.6422  -10.3460 C   0  0  0  0  0  0  0  0  0  0  0  0
   26.0678   -1.2553   -9.6800 C   0  0  0  0  0  0  0  0  0  0  0  0
   27.1994   -0.5733   -9.2977 C   0  0  0  0  0  0  0  0  0  0  0  0
   28.2308   -1.1461   -8.6582 F   0  0  0  0  0  0  0  0  0  0  0  0
   27.2991    0.7715   -9.5770 C   0  0  0  0  0  0  0  0  0  0  0  0
   26.2809    1.4081  -10.2255 C   0  0  0  0  0  0  0  0  0  0  0  0
   26.3977    2.8129  -10.5112 C   0  0  0  0  0  0  0  0  0  0  0  0
   26.4892    3.9418  -10.7611 N   0  0  0  0  0  0  0  0  0  0  0  0
   25.1443    0.6834  -10.5998 C   0  0  0  0  0  0  0  0  0  0  0  0
   19.5385   -1.3850  -10.0887 C   0  0  0  0  0  0  0  0  0  0  0  0
   20.0191   -0.8404   -9.0696 O   0  0  0  0  0  0  0  0  0  0  0  0
   18.3157   -2.0320  -10.1325 O   0  0  0  0  0  0  0  0  0  0  0  0
  1  2  1  6
  2  3  1  0
  3  4  1  6
  4  5  1  1
  5  6  1  0
  6  7  2  0
  6  8  1  0
  8  9  1  0
  9 10  2  0
 10 11  1  0
 11 12  1  0
 11 13  2  0
 13 14  1  0
 14 15  1  0
 15 16  3  0
 14 17  2  0
  4 18  1  0
 18 19  2  0
 18 20  1  0
  2 20  1  1
 17  9  1  0
M  END
$$$$
