_rank10
     RDKit          3D

 20 21  0  0  0  0  0  0  0  0999 V2000
   28.3354   -0.7512  -10.8946 C   0  0  0  0  0  0  0  0  0  0  0  0
   28.1495    0.3183   -9.8179 C   0  0  1  0  0  0  0  0  0  0  0  0
   26.8257    1.0304  -10.0057 C   0  0  0  0  0  0  0  0  0  0  0  0
   25.8512   -0.0985   -9.7403 C   0  0  2  0  0  0  0  0  0  0  0  0
   24.5968    0.3673   -9.2231 N   0  0  0  0  0  0  0  0  0  0  0  0
   23.3946   -0.2386   -9.7360 C   0  0  0  0  0  0  0  0  0  0  0  0
   23.4854   -1.1720  -10.5541 O   0  0  0  0  0  0  0  0  0  0  0  0
   22.1123    0.1980   -9.3353 N   0  0  0  0  0  0  0  0  0  0  0  0
   20.8777   -0.1571   -9.8811 C   0  0  0  0  0  0  0  0  0  0  0  0
   19.8304    0.7665   -9.8023 C   0  0  0  0  0  0  0  0  0  0  0  0
   18.5760    0.5164  -10.3078 C   0  0  0  0  0  0  0  0  0  0  0  0
   17.5605    1.3912  -10.2405 F   0  0  0  0  0  0  0  0  0  0  0  0
   18.3277   -0.6917  -10.9204 C   0  0  0  0  0  0  0  0  0  0  0  0
   19.3224   -1.6210  -11.0182 C   0  0  0  0  0  0  0  0  0  0  0  0
   19.0499   -2.8788  -11.6604 C   0  0  0  0  0  0  0  0  0  0  0  0
   18.8284   -3.8835  -12.1958 N   0  0  0  0  0  0  0  0  0  0  0  0
   20.5867   -1.3332  -10.4929 C   0  0  0  0  0  0  0  0  0  0  0  0
   26.6123   -0.8915   -8.7354 C   0  0  0  0  0  0  0  0  0  0  0  0
   26.1505   -1.8644   -8.0978 O   0  0  0  0  0  0  0  0  0  0  0  0
   27.9012   -0.4048   -8.6033 O   0  0  0  0  0  0  0  0  0  0  0  0
  1  2  1  6
  2  3  1  0
  3  4  1  6
  4  5  1  1
  5  6  1  0
  6  7  2  0
  6  8  1  0
  8  9  1  0
  9 10  2  0
 10 11  1  0
 11 12  1  0
 11 13  2  0
 13 14  1  0
 14 15  1  0
 15 16  3  0
 14 17  2  0
  4 18  1  0
 18 19  2  0
 18 20  1  0
  2 20  1  1
 17  9  1  0
M  END
$$$$
