_rank20
     RDKit          3D

 20 21  0  0  0  0  0  0  0  0999 V2000
   21.4384   -2.2573  -13.5385 C   0  0  0  0  0  0  0  0  0  0  0  0
   22.6809   -1.6281  -12.9078 C   0  0  1  0  0  0  0  0  0  0  0  0
   22.3150   -0.3458  -12.1891 C   0  0  0  0  0  0  0  0  0  0  0  0
   21.4275   -0.8784  -11.0832 C   0  0  2  0  0  0  0  0  0  0  0  0
   21.4503   -0.0504   -9.9121 N   0  0  0  0  0  0  0  0  0  0  0  0
   22.7224    0.4784   -9.4906 C   0  0  0  0  0  0  0  0  0  0  0  0
   22.7861    1.1463   -8.4425 O   0  0  0  0  0  0  0  0  0  0  0  0
   23.9025    0.2597  -10.2356 N   0  0  0  0  0  0  0  0  0  0  0  0
   25.1982    0.0723   -9.7515 C   0  0  0  0  0  0  0  0  0  0  0  0
   25.4349   -1.0118   -8.9002 C   0  0  0  0  0  0  0  0  0  0  0  0
   26.6735   -1.2858   -8.3685 C   0  0  0  0  0  0  0  0  0  0  0  0
   26.9176   -2.3213   -7.5505 F   0  0  0  0  0  0  0  0  0  0  0  0
   27.7343   -0.4649   -8.6801 C   0  0  0  0  0  0  0  0  0  0  0  0
   27.5461    0.6041   -9.5074 C   0  0  0  0  0  0  0  0  0  0  0  0
   28.6624    1.4536   -9.8249 C   0  0  0  0  0  0  0  0  0  0  0  0
   29.5498    2.1537  -10.0849 N   0  0  0  0  0  0  0  0  0  0  0  0
   26.2726    0.8532  -10.0304 C   0  0  0  0  0  0  0  0  0  0  0  0
   22.0527   -2.2084  -10.8420 C   0  0  0  0  0  0  0  0  0  0  0  0
   21.7497   -2.9780   -9.9028 O   0  0  0  0  0  0  0  0  0  0  0  0
   23.0153   -2.4767  -11.7997 O   0  0  0  0  0  0  0  0  0  0  0  0
  1  2  1  6
  2  3  1  0
  3  4  1  6
  4  5  1  1
  5  6  1  0
  6  7  2  0
  6  8  1  0
  8  9  1  0
  9 10  2  0
 10 11  1  0
 11 12  1  0
 11 13  2  0
 13 14  1  0
 14 15  1  0
 15 16  3  0
 14 17  2  0
  4 18  1  0
 18 19  2  0
 18 20  1  0
  2 20  1  1
 17  9  1  0
M  END
$$$$
