_rank13
     RDKit          3D

 16 16  0  0  0  0  0  0  0  0999 V2000
   25.6942    1.6983  -13.4361 C   0  0  0  0  0  0  0  0  0  0  0  0
   26.2350    1.2586  -11.7477 S   0  0  0  0  0  0  0  0  0  0  0  0
   25.1283    0.1342  -10.9663 C   0  0  0  0  0  0  0  0  0  0  0  0
   23.8473   -0.0200  -11.4858 C   0  0  0  0  0  0  0  0  0  0  0  0
   22.9577   -0.8791  -10.9143 C   0  0  0  0  0  0  0  0  0  0  0  0
   21.5769   -1.0881  -11.4213 C   0  0  1  0  0  0  0  0  0  0  0  0
   20.8579   -2.0172  -10.6046 N   0  0  0  0  0  0  0  0  0  0  0  0
   20.8437    0.1816  -11.4220 C   0  0  0  0  0  0  0  0  0  0  0  0
   20.2894    1.1811  -11.4248 N   0  0  0  0  0  0  0  0  0  0  0  0
   23.3627   -1.5937   -9.8037 C   0  0  0  0  0  0  0  0  0  0  0  0
   24.6359   -1.4321   -9.2978 C   0  0  0  0  0  0  0  0  0  0  0  0
   25.5542   -0.5678   -9.8598 C   0  0  0  0  0  0  0  0  0  0  0  0
   27.1327   -0.4166   -9.1750 S   0  0  1  0  0  6  0  0  0  0  0  0
   27.4416    1.1274   -8.4162 C   0  0  0  0  0  0  0  0  0  0  0  0
   27.3337   -1.5012   -8.1407 O   0  0  0  0  0  0  0  0  0  0  0  0
   28.2008   -0.6424  -10.2201 O   0  0  0  0  0  0  0  0  0  0  0  0
  1  2  1  1
  2  3  1  0
  3  4  2  0
  4  5  1  0
  5  6  1  0
  6  7  1  1
  6  8  1  0
  8  9  3  0
  5 10  2  0
 10 11  1  0
 11 12  2  0
 13 12  1  6
 14 13  1  1
 13 15  2  0
 13 16  2  0
 12  3  1  0
M  END
$$$$
