_rank20
     RDKit          3D

 16 16  0  0  0  0  0  0  0  0999 V2000
   26.6588   -1.7470  -12.9444 C   0  0  0  0  0  0  0  0  0  0  0  0
   27.6662   -0.7804  -11.7666 S   0  0  0  0  0  0  0  0  0  0  0  0
   26.7086    0.4121  -10.8945 C   0  0  0  0  0  0  0  0  0  0  0  0
   25.7823    1.1758  -11.5970 C   0  0  0  0  0  0  0  0  0  0  0  0
   25.0191    2.1097  -10.9634 C   0  0  0  0  0  0  0  0  0  0  0  0
   24.0138    2.9559  -11.6568 C   0  0  1  0  0  0  0  0  0  0  0  0
   23.6809    4.1104  -10.8800 N   0  0  0  0  0  0  0  0  0  0  0  0
   24.5426    3.4105  -12.9465 C   0  0  0  0  0  0  0  0  0  0  0  0
   24.9362    3.7664  -13.9588 N   0  0  0  0  0  0  0  0  0  0  0  0
   25.1901    2.2779   -9.6031 C   0  0  0  0  0  0  0  0  0  0  0  0
   26.1120    1.5143   -8.9174 C   0  0  0  0  0  0  0  0  0  0  0  0
   26.8963    0.5623   -9.5378 C   0  0  0  0  0  0  0  0  0  0  0  0
   28.0297   -0.3598   -8.6167 S   0  0  1  0  0  6  0  0  0  0  0  0
   28.0414    0.0145   -6.9095 C   0  0  0  0  0  0  0  0  0  0  0  0
   27.7224   -1.8318   -8.7767 O   0  0  0  0  0  0  0  0  0  0  0  0
   29.4344   -0.1738   -9.1426 O   0  0  0  0  0  0  0  0  0  0  0  0
  1  2  1  1
  2  3  1  0
  3  4  2  0
  4  5  1  0
  5  6  1  0
  6  7  1  1
  6  8  1  0
  8  9  3  0
  5 10  2  0
 10 11  1  0
 11 12  2  0
 13 12  1  6
 14 13  1  1
 13 15  2  0
 13 16  2  0
 12  3  1  0
M  END
$$$$
