_rank18
     RDKit          3D

 16 16  0  0  0  0  0  0  0  0999 V2000
   22.8149    2.5591   -9.5376 C   0  0  0  0  0  0  0  0  0  0  0  0
   24.3954    1.7616   -9.0873 S   0  0  0  0  0  0  0  0  0  0  0  0
   24.5682    0.1685   -9.8166 C   0  0  0  0  0  0  0  0  0  0  0  0
   23.5658   -0.2977  -10.6607 C   0  0  0  0  0  0  0  0  0  0  0  0
   23.6575   -1.5237  -11.2477 C   0  0  0  0  0  0  0  0  0  0  0  0
   22.6219   -2.0776  -12.1576 C   0  0  1  0  0  0  0  0  0  0  0  0
   21.4431   -2.4513  -11.4380 N   0  0  0  0  0  0  0  0  0  0  0  0
   22.2461   -1.0765  -13.1607 C   0  0  0  0  0  0  0  0  0  0  0  0
   21.9668   -0.2836  -13.9350 N   0  0  0  0  0  0  0  0  0  0  0  0
   24.7741   -2.2922  -10.9816 C   0  0  0  0  0  0  0  0  0  0  0  0
   25.7616   -1.8187  -10.1426 C   0  0  0  0  0  0  0  0  0  0  0  0
   25.6905   -0.5801   -9.5368 C   0  0  0  0  0  0  0  0  0  0  0  0
   26.9651   -0.0497   -8.4987 S   0  0  1  0  0  6  0  0  0  0  0  0
   28.2087    0.8774   -9.3043 C   0  0  0  0  0  0  0  0  0  0  0  0
   26.3849    0.7992   -7.3900 O   0  0  0  0  0  0  0  0  0  0  0  0
   27.6297   -1.2217   -7.8140 O   0  0  0  0  0  0  0  0  0  0  0  0
  1  2  1  1
  2  3  1  0
  3  4  2  0
  4  5  1  0
  5  6  1  0
  6  7  1  1
  6  8  1  0
  8  9  3  0
  5 10  2  0
 10 11  1  0
 11 12  2  0
 13 12  1  6
 14 13  1  1
 13 15  2  0
 13 16  2  0
 12  3  1  0
M  END
$$$$
