_rank9
     RDKit          3D

 16 16  0  0  0  0  0  0  0  0999 V2000
   26.3195    0.8731  -13.4297 C   0  0  0  0  0  0  0  0  0  0  0  0
   26.8517    0.3968  -11.7485 S   0  0  0  0  0  0  0  0  0  0  0  0
   25.5061   -0.1540  -10.7559 C   0  0  0  0  0  0  0  0  0  0  0  0
   24.2467   -0.2715  -11.3343 C   0  0  0  0  0  0  0  0  0  0  0  0
   23.1767   -0.6945  -10.6047 C   0  0  0  0  0  0  0  0  0  0  0  0
   21.8080   -0.8405  -11.1640 C   0  0  1  0  0  0  0  0  0  0  0  0
   21.8304   -1.5175  -12.4242 N   0  0  0  0  0  0  0  0  0  0  0  0
   20.9689   -1.6152  -10.2445 C   0  0  0  0  0  0  0  0  0  0  0  0
   20.3261   -2.2352   -9.5312 N   0  0  0  0  0  0  0  0  0  0  0  0
   23.3765   -1.0039   -9.2734 C   0  0  0  0  0  0  0  0  0  0  0  0
   24.6305   -0.8834   -8.7111 C   0  0  0  0  0  0  0  0  0  0  0  0
   25.7292   -0.4570   -9.4304 C   0  0  0  0  0  0  0  0  0  0  0  0
   27.2712   -0.3313   -8.6623 S   0  0  1  0  0  6  0  0  0  0  0  0
   28.3824   -1.6183   -9.0672 C   0  0  0  0  0  0  0  0  0  0  0  0
   27.9119    0.9846   -9.0424 O   0  0  0  0  0  0  0  0  0  0  0  0
   27.1265   -0.2986   -7.1583 O   0  0  0  0  0  0  0  0  0  0  0  0
  1  2  1  1
  2  3  1  0
  3  4  2  0
  4  5  1  0
  5  6  1  0
  6  7  1  6
  6  8  1  0
  8  9  3  0
  5 10  2  0
 10 11  1  0
 11 12  2  0
 13 12  1  6
 14 13  1  1
 13 15  2  0
 13 16  2  0
 12  3  1  0
M  END
$$$$
