_rank6
     RDKit          3D

 16 16  0  0  0  0  0  0  0  0999 V2000
   26.2384    0.2713  -13.6446 C   0  0  0  0  0  0  0  0  0  0  0  0
   26.8087    0.1716  -11.9122 S   0  0  0  0  0  0  0  0  0  0  0  0
   25.5269   -0.3379  -10.8181 C   0  0  0  0  0  0  0  0  0  0  0  0
   24.2735   -0.6359  -11.3422 C   0  0  0  0  0  0  0  0  0  0  0  0
   23.2522   -1.0347  -10.5335 C   0  0  0  0  0  0  0  0  0  0  0  0
   21.8924   -1.3669  -11.0317 C   0  0  1  0  0  0  0  0  0  0  0  0
   21.0794   -1.9225   -9.9938 N   0  0  0  0  0  0  0  0  0  0  0  0
   21.2308   -0.1581  -11.5322 C   0  0  0  0  0  0  0  0  0  0  0  0
   20.7235    0.7814  -11.9402 N   0  0  0  0  0  0  0  0  0  0  0  0
   23.4953   -1.1350   -9.1774 C   0  0  0  0  0  0  0  0  0  0  0  0
   24.7428   -0.8366   -8.6696 C   0  0  0  0  0  0  0  0  0  0  0  0
   25.7926   -0.4308   -9.4693 C   0  0  0  0  0  0  0  0  0  0  0  0
   27.3295   -0.0751   -8.7660 S   0  0  1  0  0  6  0  0  0  0  0  0
   27.2530    0.9546   -7.3557 C   0  0  0  0  0  0  0  0  0  0  0  0
   28.0091   -1.3674   -8.3726 O   0  0  0  0  0  0  0  0  0  0  0  0
   28.2467    0.5820   -9.7716 O   0  0  0  0  0  0  0  0  0  0  0  0
  1  2  1  1
  2  3  1  0
  3  4  2  0
  4  5  1  0
  5  6  1  0
  6  7  1  1
  6  8  1  0
  8  9  3  0
  5 10  2  0
 10 11  1  0
 11 12  2  0
 13 12  1  6
 14 13  1  1
 13 15  2  0
 13 16  2  0
 12  3  1  0
M  END
$$$$
