_rank8
     RDKit          3D

 16 16  0  0  0  0  0  0  0  0999 V2000
   25.5627    0.6070  -13.5026 C   0  0  0  0  0  0  0  0  0  0  0  0
   26.3185    0.0509  -11.9354 S   0  0  0  0  0  0  0  0  0  0  0  0
   25.1156   -0.2388  -10.6828 C   0  0  0  0  0  0  0  0  0  0  0  0
   23.7929   -0.4520  -11.0561 C   0  0  0  0  0  0  0  0  0  0  0  0
   22.8287   -0.6808  -10.1212 C   0  0  0  0  0  0  0  0  0  0  0  0
   21.4002   -0.9153  -10.4557 C   0  0  1  0  0  0  0  0  0  0  0  0
   20.7295    0.3109  -10.7620 N   0  0  0  0  0  0  0  0  0  0  0  0
   21.2950   -1.7969  -11.6224 C   0  0  0  0  0  0  0  0  0  0  0  0
   21.2328   -2.4847  -12.5332 N   0  0  0  0  0  0  0  0  0  0  0  0
   23.2006   -0.6952   -8.7909 C   0  0  0  0  0  0  0  0  0  0  0  0
   24.5158   -0.4823   -8.4332 C   0  0  0  0  0  0  0  0  0  0  0  0
   25.5098   -0.2487   -9.3626 C   0  0  0  0  0  0  0  0  0  0  0  0
   27.1372    0.0080   -8.8437 S   0  0  1  0  0  6  0  0  0  0  0  0
   27.7486    1.6137   -9.1646 C   0  0  0  0  0  0  0  0  0  0  0  0
   27.2325   -0.2465   -7.3562 O   0  0  0  0  0  0  0  0  0  0  0  0
   28.0754   -0.9843   -9.4913 O   0  0  0  0  0  0  0  0  0  0  0  0
  1  2  1  1
  2  3  1  0
  3  4  2  0
  4  5  1  0
  5  6  1  0
  6  7  1  6
  6  8  1  0
  8  9  3  0
  5 10  2  0
 10 11  1  0
 11 12  2  0
 13 12  1  6
 14 13  1  1
 13 15  2  0
 13 16  2  0
 12  3  1  0
M  END
$$$$
