_rank10
     RDKit          3D

 16 16  0  0  0  0  0  0  0  0999 V2000
   26.9401   -0.7972  -12.8744 C   0  0  0  0  0  0  0  0  0  0  0  0
   26.3221    0.5380  -11.7918 S   0  0  0  0  0  0  0  0  0  0  0  0
   25.0627   -0.0229  -10.6968 C   0  0  0  0  0  0  0  0  0  0  0  0
   23.7864   -0.2523  -11.1998 C   0  0  0  0  0  0  0  0  0  0  0  0
   22.7813   -0.6873  -10.3895 C   0  0  0  0  0  0  0  0  0  0  0  0
   21.3988   -0.9503  -10.8657 C   0  0  1  0  0  0  0  0  0  0  0  0
   20.7784   -1.9953  -10.1106 N   0  0  0  0  0  0  0  0  0  0  0  0
   20.5810    0.2589  -10.7290 C   0  0  0  0  0  0  0  0  0  0  0  0
   19.9579    1.2120  -10.6314 N   0  0  0  0  0  0  0  0  0  0  0  0
   23.0642   -0.8945   -9.0534 C   0  0  0  0  0  0  0  0  0  0  0  0
   24.3341   -0.6634   -8.5664 C   0  0  0  0  0  0  0  0  0  0  0  0
   25.3682   -0.2227   -9.3681 C   0  0  0  0  0  0  0  0  0  0  0  0
   26.9348    0.0443   -8.6916 S   0  0  1  0  0  6  0  0  0  0  0  0
   27.4648    1.7091   -8.7423 C   0  0  0  0  0  0  0  0  0  0  0  0
   26.9395   -0.4105   -7.2495 O   0  0  0  0  0  0  0  0  0  0  0  0
   27.9778   -0.7966   -9.3911 O   0  0  0  0  0  0  0  0  0  0  0  0
  1  2  1  1
  2  3  1  0
  3  4  2  0
  4  5  1  0
  5  6  1  0
  6  7  1  1
  6  8  1  0
  8  9  3  0
  5 10  2  0
 10 11  1  0
 11 12  2  0
 13 12  1  6
 14 13  1  1
 13 15  2  0
 13 16  2  0
 12  3  1  0
M  END
$$$$
