_rank3
     RDKit          3D

 16 16  0  0  0  0  0  0  0  0999 V2000
   26.4380    0.3303  -13.4533 C   0  0  0  0  0  0  0  0  0  0  0  0
   26.8911   -0.0918  -11.7348 S   0  0  0  0  0  0  0  0  0  0  0  0
   25.4774   -0.3026  -10.7069 C   0  0  0  0  0  0  0  0  0  0  0  0
   24.2227   -0.4002  -11.2994 C   0  0  0  0  0  0  0  0  0  0  0  0
   23.1013   -0.5646  -10.5434 C   0  0  0  0  0  0  0  0  0  0  0  0
   21.7347   -0.6752  -11.1157 C   0  0  1  0  0  0  0  0  0  0  0  0
   21.3731   -2.0415  -11.3388 N   0  0  0  0  0  0  0  0  0  0  0  0
   20.7552   -0.0882  -10.1960 C   0  0  0  0  0  0  0  0  0  0  0  0
   19.9933    0.3533   -9.4674 N   0  0  0  0  0  0  0  0  0  0  0  0
   23.2440   -0.6319   -9.1711 C   0  0  0  0  0  0  0  0  0  0  0  0
   24.4938   -0.5339   -8.5953 C   0  0  0  0  0  0  0  0  0  0  0  0
   25.6440   -0.3671   -9.3407 C   0  0  0  0  0  0  0  0  0  0  0  0
   27.1771   -0.2538   -8.5533 S   0  0  1  0  0  6  0  0  0  0  0  0
   28.4045   -1.3070   -9.2160 C   0  0  0  0  0  0  0  0  0  0  0  0
   27.6782    1.1703   -8.6395 O   0  0  0  0  0  0  0  0  0  0  0  0
   27.0524   -0.5569   -7.0778 O   0  0  0  0  0  0  0  0  0  0  0  0
  1  2  1  1
  2  3  1  0
  3  4  2  0
  4  5  1  0
  5  6  1  0
  6  7  1  1
  6  8  1  0
  8  9  3  0
  5 10  2  0
 10 11  1  0
 11 12  2  0
 13 12  1  6
 14 13  1  1
 13 15  2  0
 13 16  2  0
 12  3  1  0
M  END
$$$$
