_rank16
     RDKit          3D

 16 16  0  0  0  0  0  0  0  0999 V2000
   21.1087   -3.3697  -11.8169 C   0  0  0  0  0  0  0  0  0  0  0  0
   20.6886   -1.6020  -11.6282 S   0  0  0  0  0  0  0  0  0  0  0  0
   21.9088   -0.7222  -10.7136 C   0  0  0  0  0  0  0  0  0  0  0  0
   23.2069   -1.2199  -10.6709 C   0  0  0  0  0  0  0  0  0  0  0  0
   24.1836   -0.5721   -9.9763 C   0  0  0  0  0  0  0  0  0  0  0  0
   25.5872   -1.0521   -9.8924 C   0  0  1  0  0  0  0  0  0  0  0  0
   26.2642   -0.9017  -11.1439 N   0  0  0  0  0  0  0  0  0  0  0  0
   26.3215   -0.2853   -8.8813 C   0  0  0  0  0  0  0  0  0  0  0  0
   26.8870    0.3294   -8.1010 N   0  0  0  0  0  0  0  0  0  0  0  0
   23.8497    0.5937   -9.3149 C   0  0  0  0  0  0  0  0  0  0  0  0
   22.5586    1.0773   -9.3648 C   0  0  0  0  0  0  0  0  0  0  0  0
   21.5526    0.4384  -10.0620 C   0  0  0  0  0  0  0  0  0  0  0  0
   19.9580    1.1017  -10.0834 S   0  0  1  0  0  6  0  0  0  0  0  0
   18.9552    0.6047   -8.7408 C   0  0  0  0  0  0  0  0  0  0  0  0
   20.0455    2.6113  -10.0757 O   0  0  0  0  0  0  0  0  0  0  0  0
   19.2369    0.7384  -11.3610 O   0  0  0  0  0  0  0  0  0  0  0  0
  1  2  1  1
  2  3  1  0
  3  4  2  0
  4  5  1  0
  5  6  1  0
  6  7  1  6
  6  8  1  0
  8  9  3  0
  5 10  2  0
 10 11  1  0
 11 12  2  0
 13 12  1  1
 14 13  1  1
 13 15  2  0
 13 16  2  0
 12  3  1  0
M  END
$$$$
