_rank17
     RDKit          3D

 16 16  0  0  0  0  0  0  0  0999 V2000
   22.7951    1.0175   -9.4779 C   0  0  0  0  0  0  0  0  0  0  0  0
   24.5258    1.1894   -8.9195 S   0  0  0  0  0  0  0  0  0  0  0  0
   25.6643    0.4623  -10.0486 C   0  0  0  0  0  0  0  0  0  0  0  0
   25.3739    0.4893  -11.4085 C   0  0  0  0  0  0  0  0  0  0  0  0
   26.2260   -0.0603  -12.3184 C   0  0  0  0  0  0  0  0  0  0  0  0
   25.9729   -0.0635  -13.7825 C   0  0  1  0  0  0  0  0  0  0  0  0
   24.6425    0.3698  -14.0814 N   0  0  0  0  0  0  0  0  0  0  0  0
   26.9097    0.8404  -14.4569 C   0  0  0  0  0  0  0  0  0  0  0  0
   27.6405    1.5565  -14.9663 N   0  0  0  0  0  0  0  0  0  0  0  0
   27.3876   -0.6457  -11.8534 C   0  0  0  0  0  0  0  0  0  0  0  0
   27.6644   -0.6661  -10.5021 C   0  0  0  0  0  0  0  0  0  0  0  0
   26.8164   -0.1158   -9.5618 C   0  0  0  0  0  0  0  0  0  0  0  0
   27.2273   -0.1754   -7.8852 S   0  0  1  0  0  6  0  0  0  0  0  0
   25.8504   -0.2187   -6.8093 C   0  0  0  0  0  0  0  0  0  0  0  0
   28.0726   -1.4012   -7.6220 O   0  0  0  0  0  0  0  0  0  0  0  0
   28.0846    1.0066   -7.4949 O   0  0  0  0  0  0  0  0  0  0  0  0
  1  2  1  1
  2  3  1  0
  3  4  2  0
  4  5  1  0
  5  6  1  0
  6  7  1  1
  6  8  1  0
  8  9  3  0
  5 10  2  0
 10 11  1  0
 11 12  2  0
 13 12  1  6
 14 13  1  1
 13 15  2  0
 13 16  2  0
 12  3  1  0
M  END
$$$$
