_rank12
     RDKit          3D

 16 16  0  0  0  0  0  0  0  0999 V2000
   26.2958    0.6189  -13.5881 C   0  0  0  0  0  0  0  0  0  0  0  0
   26.7722    0.6930  -11.8262 S   0  0  0  0  0  0  0  0  0  0  0  0
   25.4415    0.2587  -10.7585 C   0  0  0  0  0  0  0  0  0  0  0  0
   24.1485    0.2327  -11.2705 C   0  0  0  0  0  0  0  0  0  0  0  0
   23.0885   -0.0984  -10.4814 C   0  0  0  0  0  0  0  0  0  0  0  0
   21.6855   -0.1442  -10.9682 C   0  0  1  0  0  0  0  0  0  0  0  0
   21.5820    0.3559  -12.3047 N   0  0  0  0  0  0  0  0  0  0  0  0
   21.1945   -1.5256  -10.9585 C   0  0  0  0  0  0  0  0  0  0  0  0
   20.8064   -2.6006  -10.9699 N   0  0  0  0  0  0  0  0  0  0  0  0
   23.3326   -0.4079   -9.1575 C   0  0  0  0  0  0  0  0  0  0  0  0
   24.6196   -0.3787   -8.6614 C   0  0  0  0  0  0  0  0  0  0  0  0
   25.7090   -0.0463   -9.4417 C   0  0  0  0  0  0  0  0  0  0  0  0
   27.2938   -0.0318   -8.7549 S   0  0  1  0  0  6  0  0  0  0  0  0
   28.4066   -1.1600   -9.4924 C   0  0  0  0  0  0  0  0  0  0  0  0
   27.8777    1.3577   -8.8770 O   0  0  0  0  0  0  0  0  0  0  0  0
   27.2453   -0.3285   -7.2737 O   0  0  0  0  0  0  0  0  0  0  0  0
  1  2  1  1
  2  3  1  0
  3  4  2  0
  4  5  1  0
  5  6  1  0
  6  7  1  6
  6  8  1  0
  8  9  3  0
  5 10  2  0
 10 11  1  0
 11 12  2  0
 13 12  1  6
 14 13  1  1
 13 15  2  0
 13 16  2  0
 12  3  1  0
M  END
$$$$
