_rank14
     RDKit          3D

 16 16  0  0  0  0  0  0  0  0999 V2000
   22.4582    0.0410   -9.1827 C   0  0  0  0  0  0  0  0  0  0  0  0
   24.0937   -0.6805   -8.8069 S   0  0  0  0  0  0  0  0  0  0  0  0
   25.2902   -0.2944  -10.0394 C   0  0  0  0  0  0  0  0  0  0  0  0
   24.8706   -0.1218  -11.3542 C   0  0  0  0  0  0  0  0  0  0  0  0
   25.7610    0.1784  -12.3406 C   0  0  0  0  0  0  0  0  0  0  0  0
   25.3760    0.3748  -13.7621 C   0  0  1  0  0  0  0  0  0  0  0  0
   24.0222    0.8234  -13.8772 N   0  0  0  0  0  0  0  0  0  0  0  0
   26.2442    1.3791  -14.3844 C   0  0  0  0  0  0  0  0  0  0  0  0
   26.9307    2.1641  -14.8521 N   0  0  0  0  0  0  0  0  0  0  0  0
   27.0934    0.3069  -11.9994 C   0  0  0  0  0  0  0  0  0  0  0  0
   27.4972    0.1334  -10.6917 C   0  0  0  0  0  0  0  0  0  0  0  0
   26.6134   -0.1711   -9.6757 C   0  0  0  0  0  0  0  0  0  0  0  0
   27.1884   -0.3727   -8.0595 S   0  0  1  0  0  6  0  0  0  0  0  0
   28.0750   -1.8552   -7.7923 C   0  0  0  0  0  0  0  0  0  0  0  0
   28.0886    0.7884   -7.7018 O   0  0  0  0  0  0  0  0  0  0  0  0
   26.0478   -0.3288   -7.0689 O   0  0  0  0  0  0  0  0  0  0  0  0
  1  2  1  1
  2  3  1  0
  3  4  2  0
  4  5  1  0
  5  6  1  0
  6  7  1  1
  6  8  1  0
  8  9  3  0
  5 10  2  0
 10 11  1  0
 11 12  2  0
 13 12  1  6
 14 13  1  1
 13 15  2  0
 13 16  2  0
 12  3  1  0
M  END
$$$$
