_rank16
     RDKit          3D

 21 22  0  0  0  0  0  0  0  0999 V2000
   28.3824   -1.7802  -10.2677 C   0  0  0  0  0  0  0  0  0  0  0  0
   27.0362   -1.5282  -10.4955 O   0  0  0  0  0  0  0  0  0  0  0  0
   26.2720   -0.6395   -9.7343 C   0  0  0  0  0  0  0  0  0  0  0  0
   26.7856   -0.2482   -8.5270 C   0  0  0  0  0  0  0  0  0  0  0  0
   26.0819    0.6340   -7.7059 C   0  0  0  0  0  0  0  0  0  0  0  0
   26.6439    1.0337   -6.4289 C   0  0  0  0  0  0  0  0  0  0  0  0
   25.8405    1.8752   -5.5688 N   0  0  0  0  0  0  0  0  0  0  0  0
   27.7712    0.7152   -5.9964 O   0  0  0  0  0  0  0  0  0  0  0  0
   24.8741    1.0751   -8.1672 C   0  0  0  0  0  0  0  0  0  0  0  0
   24.3529    0.6870   -9.3797 C   0  0  0  0  0  0  0  0  0  0  0  0
   25.0664   -0.1790  -10.1632 C   0  0  0  0  0  0  0  0  0  0  0  0
   24.5529   -0.5808  -11.3903 O   0  0  0  0  0  0  0  0  0  0  0  0
   23.2113   -0.8977  -11.5690 C   0  0  0  0  0  0  0  0  0  0  0  0
   22.5958   -1.6920  -10.6360 C   0  0  0  0  0  0  0  0  0  0  0  0
   21.2704   -2.0690  -10.7158 C   0  0  0  0  0  0  0  0  0  0  0  0
   20.6268   -2.8630   -9.7963 C   0  0  0  0  0  0  0  0  0  0  0  0
   20.0578   -3.5930   -8.9464 N   0  0  0  0  0  0  0  0  0  0  0  0
   20.5829   -1.5656  -11.8513 C   0  0  0  0  0  0  0  0  0  0  0  0
   21.1939   -0.7726  -12.7855 C   0  0  0  0  0  0  0  0  0  0  0  0
   22.5323   -0.4188  -12.6624 C   0  0  0  0  0  0  0  0  0  0  0  0
   23.1698    0.4067  -13.6028 N   0  0  0  0  0  0  0  0  0  0  0  0
  1  2  1  6
  2  3  1  0
  3  4  2  0
  4  5  1  0
  5  6  1  0
  6  7  1  0
  6  8  2  0
  5  9  2  0
  9 10  1  0
 10 11  2  0
 11 12  1  0
 12 13  1  0
 13 14  2  0
 14 15  1  0
 15 16  1  0
 16 17  3  0
 15 18  2  0
 18 19  1  0
 19 20  2  0
 20 21  1  0
 11  3  1  0
 20 13  1  0
M  END
$$$$
