_rank6
     RDKit          3D

 21 22  0  0  0  0  0  0  0  0999 V2000
   19.9876    2.4513  -10.0760 C   0  0  0  0  0  0  0  0  0  0  0  0
   21.1815    1.7492   -9.9780 O   0  0  0  0  0  0  0  0  0  0  0  0
   21.2904    0.3699  -10.1742 C   0  0  0  0  0  0  0  0  0  0  0  0
   20.2022   -0.3958   -9.8518 C   0  0  0  0  0  0  0  0  0  0  0  0
   20.2326   -1.7815  -10.0149 C   0  0  0  0  0  0  0  0  0  0  0  0
   19.0685   -2.5742   -9.6644 C   0  0  0  0  0  0  0  0  0  0  0  0
   17.8144   -1.8823   -9.4603 N   0  0  0  0  0  0  0  0  0  0  0  0
   19.0470   -3.8143   -9.5205 O   0  0  0  0  0  0  0  0  0  0  0  0
   21.3891   -2.3192  -10.5045 C   0  0  0  0  0  0  0  0  0  0  0  0
   22.4856   -1.5556  -10.8317 C   0  0  0  0  0  0  0  0  0  0  0  0
   22.4257   -0.1991  -10.6611 C   0  0  0  0  0  0  0  0  0  0  0  0
   23.5254    0.5856  -10.9865 O   0  0  0  0  0  0  0  0  0  0  0  0
   24.8324    0.1451  -10.8138 C   0  0  0  0  0  0  0  0  0  0  0  0
   25.3184    0.0198   -9.5378 C   0  0  0  0  0  0  0  0  0  0  0  0
   26.5997   -0.4066   -9.2520 C   0  0  0  0  0  0  0  0  0  0  0  0
   27.1139   -0.5423   -7.9842 C   0  0  0  0  0  0  0  0  0  0  0  0
   27.5927   -0.6854   -6.8313 N   0  0  0  0  0  0  0  0  0  0  0  0
   27.3871   -0.7101  -10.3937 C   0  0  0  0  0  0  0  0  0  0  0  0
   26.9058   -0.5859  -11.6695 C   0  0  0  0  0  0  0  0  0  0  0  0
   25.6071   -0.1523  -11.9081 C   0  0  0  0  0  0  0  0  0  0  0  0
   25.0926   -0.0349  -13.2096 N   0  0  0  0  0  0  0  0  0  0  0  0
  1  2  1  6
  2  3  1  0
  3  4  2  0
  4  5  1  0
  5  6  1  0
  6  7  1  0
  6  8  2  0
  5  9  2  0
  9 10  1  0
 10 11  2  0
 11 12  1  0
 12 13  1  0
 13 14  2  0
 14 15  1  0
 15 16  1  0
 16 17  3  0
 15 18  2  0
 18 19  1  0
 19 20  2  0
 20 21  1  0
 11  3  1  0
 20 13  1  0
M  END
$$$$
