_rank4
     RDKit          3D

 21 22  0  0  0  0  0  0  0  0999 V2000
   27.3147    0.1832  -12.7608 C   0  0  0  0  0  0  0  0  0  0  0  0
   26.1103   -0.3061  -12.2733 O   0  0  0  0  0  0  0  0  0  0  0  0
   25.7063   -0.1896  -10.9405 C   0  0  0  0  0  0  0  0  0  0  0  0
   26.6907   -0.1433   -9.9902 C   0  0  0  0  0  0  0  0  0  0  0  0
   26.3695   -0.0317   -8.6367 C   0  0  0  0  0  0  0  0  0  0  0  0
   27.4290    0.0131   -7.6458 C   0  0  0  0  0  0  0  0  0  0  0  0
   28.7971    0.0155   -8.1166 N   0  0  0  0  0  0  0  0  0  0  0  0
   27.2689    0.0503   -6.4080 O   0  0  0  0  0  0  0  0  0  0  0  0
   25.0416    0.0266   -8.3211 C   0  0  0  0  0  0  0  0  0  0  0  0
   24.0476   -0.0179   -9.2710 C   0  0  0  0  0  0  0  0  0  0  0  0
   24.3936   -0.1273  -10.5905 C   0  0  0  0  0  0  0  0  0  0  0  0
   23.4008   -0.1742  -11.5617 O   0  0  0  0  0  0  0  0  0  0  0  0
   22.0796   -0.4859  -11.2623 C   0  0  0  0  0  0  0  0  0  0  0  0
   21.8213   -1.6289  -10.5504 C   0  0  0  0  0  0  0  0  0  0  0  0
   20.5490   -2.0341  -10.2007 C   0  0  0  0  0  0  0  0  0  0  0  0
   20.2596   -3.1735   -9.4879 C   0  0  0  0  0  0  0  0  0  0  0  0
   20.0029   -4.2270   -8.8529 N   0  0  0  0  0  0  0  0  0  0  0  0
   19.5141   -1.1666  -10.6389 C   0  0  0  0  0  0  0  0  0  0  0  0
   19.7677   -0.0244  -11.3503 C   0  0  0  0  0  0  0  0  0  0  0  0
   21.0671    0.3430  -11.6792 C   0  0  0  0  0  0  0  0  0  0  0  0
   21.3459    1.5192  -12.3942 N   0  0  0  0  0  0  0  0  0  0  0  0
  1  2  1  6
  2  3  1  0
  3  4  2  0
  4  5  1  0
  5  6  1  0
  6  7  1  0
  6  8  2  0
  5  9  2  0
  9 10  1  0
 10 11  2  0
 11 12  1  0
 12 13  1  0
 13 14  2  0
 14 15  1  0
 15 16  1  0
 16 17  3  0
 15 18  2  0
 18 19  1  0
 19 20  2  0
 20 21  1  0
 11  3  1  0
 20 13  1  0
M  END
$$$$
