_rank14
     RDKit          3D

 21 22  0  0  0  0  0  0  0  0999 V2000
   22.0924    0.0045  -14.1700 C   0  0  0  0  0  0  0  0  0  0  0  0
   22.8779    0.1946  -13.0410 O   0  0  0  0  0  0  0  0  0  0  0  0
   22.4436   -0.0678  -11.7388 C   0  0  0  0  0  0  0  0  0  0  0  0
   21.1487    0.2556  -11.4341 C   0  0  0  0  0  0  0  0  0  0  0  0
   20.6400    0.0286  -10.1544 C   0  0  0  0  0  0  0  0  0  0  0  0
   19.2650    0.3814   -9.8524 C   0  0  0  0  0  0  0  0  0  0  0  0
   18.8072    0.2174   -8.4898 N   0  0  0  0  0  0  0  0  0  0  0  0
   18.4282    0.8194  -10.6692 O   0  0  0  0  0  0  0  0  0  0  0  0
   21.4929   -0.5233   -9.2411 C   0  0  0  0  0  0  0  0  0  0  0  0
   22.7946   -0.8519   -9.5410 C   0  0  0  0  0  0  0  0  0  0  0  0
   23.2649   -0.6178  -10.8047 C   0  0  0  0  0  0  0  0  0  0  0  0
   24.5778   -0.9437  -11.1228 O   0  0  0  0  0  0  0  0  0  0  0  0
   25.5700   -1.0664  -10.1571 C   0  0  0  0  0  0  0  0  0  0  0  0
   26.2308    0.0638   -9.7493 C   0  0  0  0  0  0  0  0  0  0  0  0
   27.2323    0.0564   -8.7995 C   0  0  0  0  0  0  0  0  0  0  0  0
   27.9114    1.1724   -8.3710 C   0  0  0  0  0  0  0  0  0  0  0  0
   28.5187    2.1936   -7.9620 N   0  0  0  0  0  0  0  0  0  0  0  0
   27.5306   -1.2262   -8.2691 C   0  0  0  0  0  0  0  0  0  0  0  0
   26.8735   -2.3572   -8.6738 C   0  0  0  0  0  0  0  0  0  0  0  0
   25.8706   -2.3002   -9.6342 C   0  0  0  0  0  0  0  0  0  0  0  0
   25.1758   -3.4481  -10.0487 N   0  0  0  0  0  0  0  0  0  0  0  0
  1  2  1  6
  2  3  1  0
  3  4  2  0
  4  5  1  0
  5  6  1  0
  6  7  1  0
  6  8  2  0
  5  9  2  0
  9 10  1  0
 10 11  2  0
 11 12  1  0
 12 13  1  0
 13 14  2  0
 14 15  1  0
 15 16  1  0
 16 17  3  0
 15 18  2  0
 18 19  1  0
 19 20  2  0
 20 21  1  0
 11  3  1  0
 20 13  1  0
M  END
$$$$
