_rank17
     RDKit          3D

 21 22  0  0  0  0  0  0  0  0999 V2000
   23.1884   -2.7292  -13.9505 C   0  0  0  0  0  0  0  0  0  0  0  0
   23.9090   -2.2041  -12.8862 O   0  0  0  0  0  0  0  0  0  0  0  0
   23.3251   -1.5357  -11.8067 C   0  0  0  0  0  0  0  0  0  0  0  0
   22.0027   -1.7869  -11.5564 C   0  0  0  0  0  0  0  0  0  0  0  0
   21.3454   -1.1561  -10.4992 C   0  0  0  0  0  0  0  0  0  0  0  0
   19.9426   -1.4353  -10.2535 C   0  0  0  0  0  0  0  0  0  0  0  0
   19.5242   -2.8197  -10.2138 N   0  0  0  0  0  0  0  0  0  0  0  0
   19.0502   -0.5813  -10.0705 O   0  0  0  0  0  0  0  0  0  0  0  0
   22.0835   -0.2896   -9.7437 C   0  0  0  0  0  0  0  0  0  0  0  0
   23.4127   -0.0337   -9.9888 C   0  0  0  0  0  0  0  0  0  0  0  0
   24.0302   -0.6676  -11.0327 C   0  0  0  0  0  0  0  0  0  0  0  0
   25.3723   -0.4190  -11.2933 O   0  0  0  0  0  0  0  0  0  0  0  0
   26.3175   -0.2960  -10.2815 C   0  0  0  0  0  0  0  0  0  0  0  0
   26.7147    0.9613   -9.9053 C   0  0  0  0  0  0  0  0  0  0  0  0
   27.6465    1.1984   -8.9150 C   0  0  0  0  0  0  0  0  0  0  0  0
   28.0635    2.4464   -8.5166 C   0  0  0  0  0  0  0  0  0  0  0  0
   28.4397    3.5948   -8.1723 N   0  0  0  0  0  0  0  0  0  0  0  0
   28.1695    0.0271   -8.3067 C   0  0  0  0  0  0  0  0  0  0  0  0
   27.7758   -1.2302   -8.6796 C   0  0  0  0  0  0  0  0  0  0  0  0
   26.8332   -1.4194   -9.6832 C   0  0  0  0  0  0  0  0  0  0  0  0
   26.4066   -2.7013  -10.0666 N   0  0  0  0  0  0  0  0  0  0  0  0
  1  2  1  6
  2  3  1  0
  3  4  2  0
  4  5  1  0
  5  6  1  0
  6  7  1  0
  6  8  2  0
  5  9  2  0
  9 10  1  0
 10 11  2  0
 11 12  1  0
 12 13  1  0
 13 14  2  0
 14 15  1  0
 15 16  1  0
 16 17  3  0
 15 18  2  0
 18 19  1  0
 19 20  2  0
 20 21  1  0
 11  3  1  0
 20 13  1  0
M  END
$$$$
