_rank10
     RDKit          3D

 21 22  0  0  0  0  0  0  0  0999 V2000
   21.1911   -1.5260  -14.2349 C   0  0  0  0  0  0  0  0  0  0  0  0
   22.2896   -1.2428  -13.4344 O   0  0  0  0  0  0  0  0  0  0  0  0
   22.2426   -1.1950  -12.0385 C   0  0  0  0  0  0  0  0  0  0  0  0
   21.0451   -1.4868  -11.4425 C   0  0  0  0  0  0  0  0  0  0  0  0
   20.9148   -1.4571  -10.0533 C   0  0  0  0  0  0  0  0  0  0  0  0
   19.6353   -1.7674   -9.4427 C   0  0  0  0  0  0  0  0  0  0  0  0
   19.6376   -2.2896   -8.0934 N   0  0  0  0  0  0  0  0  0  0  0  0
   18.5171   -1.6240   -9.9795 O   0  0  0  0  0  0  0  0  0  0  0  0
   22.0296   -1.1255   -9.3367 C   0  0  0  0  0  0  0  0  0  0  0  0
   23.2362   -0.8326   -9.9290 C   0  0  0  0  0  0  0  0  0  0  0  0
   23.3332   -0.8703  -11.2936 C   0  0  0  0  0  0  0  0  0  0  0  0
   24.5451   -0.5763  -11.9067 O   0  0  0  0  0  0  0  0  0  0  0  0
   25.7077   -0.3378  -11.1831 C   0  0  0  0  0  0  0  0  0  0  0  0
   25.9740   -1.1254  -10.0928 C   0  0  0  0  0  0  0  0  0  0  0  0
   27.0964   -0.9750   -9.3037 C   0  0  0  0  0  0  0  0  0  0  0  0
   27.3898   -1.7490   -8.2060 C   0  0  0  0  0  0  0  0  0  0  0  0
   27.6763   -2.4449   -7.1997 N   0  0  0  0  0  0  0  0  0  0  0  0
   27.9665    0.0701   -9.7115 C   0  0  0  0  0  0  0  0  0  0  0  0
   27.7041    0.8591  -10.7994 C   0  0  0  0  0  0  0  0  0  0  0  0
   26.5595    0.6696  -11.5646 C   0  0  0  0  0  0  0  0  0  0  0  0
   26.2835    1.4592  -12.6927 N   0  0  0  0  0  0  0  0  0  0  0  0
  1  2  1  6
  2  3  1  0
  3  4  2  0
  4  5  1  0
  5  6  1  0
  6  7  1  0
  6  8  2  0
  5  9  2  0
  9 10  1  0
 10 11  2  0
 11 12  1  0
 12 13  1  0
 13 14  2  0
 14 15  1  0
 15 16  1  0
 16 17  3  0
 15 18  2  0
 18 19  1  0
 19 20  2  0
 20 21  1  0
 11  3  1  0
 20 13  1  0
M  END
$$$$
