_rank5
     RDKit          3D

 21 22  0  0  0  0  0  0  0  0999 V2000
   24.9604    0.6346  -13.1725 C   0  0  0  0  0  0  0  0  0  0  0  0
   25.8271    0.8580  -12.1111 O   0  0  0  0  0  0  0  0  0  0  0  0
   25.6135    0.3732  -10.8179 C   0  0  0  0  0  0  0  0  0  0  0  0
   26.7211    0.1106  -10.0573 C   0  0  0  0  0  0  0  0  0  0  0  0
   26.5924   -0.3796   -8.7569 C   0  0  0  0  0  0  0  0  0  0  0  0
   27.7801   -0.6536   -7.9692 C   0  0  0  0  0  0  0  0  0  0  0  0
   27.6908   -1.6648   -6.9383 N   0  0  0  0  0  0  0  0  0  0  0  0
   28.8872   -0.0910   -8.0991 O   0  0  0  0  0  0  0  0  0  0  0  0
   25.3218   -0.5792   -8.2965 C   0  0  0  0  0  0  0  0  0  0  0  0
   24.2047   -0.3161   -9.0548 C   0  0  0  0  0  0  0  0  0  0  0  0
   24.3626    0.1642  -10.3265 C   0  0  0  0  0  0  0  0  0  0  0  0
   23.2438    0.4342  -11.1051 O   0  0  0  0  0  0  0  0  0  0  0  0
   21.9892   -0.0883  -10.8134 C   0  0  0  0  0  0  0  0  0  0  0  0
   21.7833   -1.4330  -10.9852 C   0  0  0  0  0  0  0  0  0  0  0  0
   20.5786   -2.0554  -10.7278 C   0  0  0  0  0  0  0  0  0  0  0  0
   20.3430   -3.4002  -10.8901 C   0  0  0  0  0  0  0  0  0  0  0  0
   20.1087   -4.6270  -11.0278 N   0  0  0  0  0  0  0  0  0  0  0  0
   19.5548   -1.1873  -10.2653 C   0  0  0  0  0  0  0  0  0  0  0  0
   19.7561    0.1561  -10.0928 C   0  0  0  0  0  0  0  0  0  0  0  0
   20.9883    0.7384  -10.3653 C   0  0  0  0  0  0  0  0  0  0  0  0
   21.2162    2.1115  -10.1784 N   0  0  0  0  0  0  0  0  0  0  0  0
  1  2  1  6
  2  3  1  0
  3  4  2  0
  4  5  1  0
  5  6  1  0
  6  7  1  0
  6  8  2  0
  5  9  2  0
  9 10  1  0
 10 11  2  0
 11 12  1  0
 12 13  1  0
 13 14  2  0
 14 15  1  0
 15 16  1  0
 16 17  3  0
 15 18  2  0
 18 19  1  0
 19 20  2  0
 20 21  1  0
 11  3  1  0
 20 13  1  0
M  END
$$$$
