_rank2
     RDKit          3D

 21 22  0  0  0  0  0  0  0  0999 V2000
   26.1201    0.5356  -13.2332 C   0  0  0  0  0  0  0  0  0  0  0  0
   25.3435    1.1021  -12.2313 O   0  0  0  0  0  0  0  0  0  0  0  0
   25.1669    0.5310  -10.9681 C   0  0  0  0  0  0  0  0  0  0  0  0
   26.2466    0.5282  -10.1263 C   0  0  0  0  0  0  0  0  0  0  0  0
   26.1528   -0.0270   -8.8493 C   0  0  0  0  0  0  0  0  0  0  0  0
   27.3106   -0.0215   -7.9743 C   0  0  0  0  0  0  0  0  0  0  0  0
   28.4241    0.8314   -8.3294 N   0  0  0  0  0  0  0  0  0  0  0  0
   27.4382   -0.6929   -6.9292 O   0  0  0  0  0  0  0  0  0  0  0  0
   24.9449   -0.5579   -8.4953 C   0  0  0  0  0  0  0  0  0  0  0  0
   23.8557   -0.5570   -9.3355 C   0  0  0  0  0  0  0  0  0  0  0  0
   23.9782   -0.0051  -10.5818 C   0  0  0  0  0  0  0  0  0  0  0  0
   22.8871    0.0027  -11.4423 O   0  0  0  0  0  0  0  0  0  0  0  0
   21.6189   -0.4012  -11.0413 C   0  0  0  0  0  0  0  0  0  0  0  0
   21.2151   -1.6785  -11.3336 C   0  0  0  0  0  0  0  0  0  0  0  0
   19.9783   -2.1822  -10.9846 C   0  0  0  0  0  0  0  0  0  0  0  0
   19.5464   -3.4573  -11.2635 C   0  0  0  0  0  0  0  0  0  0  0  0
   19.1392   -4.6147  -11.5345 N   0  0  0  0  0  0  0  0  0  0  0  0
   19.1446   -1.2663  -10.2906 C   0  0  0  0  0  0  0  0  0  0  0  0
   19.5439    0.0101   -9.9970 C   0  0  0  0  0  0  0  0  0  0  0  0
   20.8004    0.4730  -10.3692 C   0  0  0  0  0  0  0  0  0  0  0  0
   21.2316    1.7738  -10.0619 N   0  0  0  0  0  0  0  0  0  0  0  0
  1  2  1  6
  2  3  1  0
  3  4  2  0
  4  5  1  0
  5  6  1  0
  6  7  1  0
  6  8  2  0
  5  9  2  0
  9 10  1  0
 10 11  2  0
 11 12  1  0
 12 13  1  0
 13 14  2  0
 14 15  1  0
 15 16  1  0
 16 17  3  0
 15 18  2  0
 18 19  1  0
 19 20  2  0
 20 21  1  0
 11  3  1  0
 20 13  1  0
M  END
$$$$
