_rank11
     RDKit          3D

 21 22  0  0  0  0  0  0  0  0999 V2000
   22.1162   -0.1031  -14.0785 C   0  0  0  0  0  0  0  0  0  0  0  0
   23.0719   -0.1656  -13.0733 O   0  0  0  0  0  0  0  0  0  0  0  0
   22.8414   -0.7297  -11.8156 C   0  0  0  0  0  0  0  0  0  0  0  0
   21.5407   -0.8153  -11.3972 C   0  0  0  0  0  0  0  0  0  0  0  0
   21.2275   -1.3623  -10.1520 C   0  0  0  0  0  0  0  0  0  0  0  0
   19.8420   -1.4409   -9.7274 C   0  0  0  0  0  0  0  0  0  0  0  0
   19.4884   -0.8478   -8.4559 N   0  0  0  0  0  0  0  0  0  0  0  0
   18.9132   -1.9797  -10.3648 O   0  0  0  0  0  0  0  0  0  0  0  0
   22.2739   -1.7980   -9.3894 C   0  0  0  0  0  0  0  0  0  0  0  0
   23.5829   -1.7163   -9.8043 C   0  0  0  0  0  0  0  0  0  0  0  0
   23.8589   -1.1752  -11.0307 C   0  0  0  0  0  0  0  0  0  0  0  0
   25.1762   -1.0852  -11.4636 O   0  0  0  0  0  0  0  0  0  0  0  0
   26.2487   -1.0330  -10.5808 C   0  0  0  0  0  0  0  0  0  0  0  0
   26.1753   -0.1793   -9.5103 C   0  0  0  0  0  0  0  0  0  0  0  0
   27.1814   -0.0466   -8.5749 C   0  0  0  0  0  0  0  0  0  0  0  0
   27.1358    0.7997   -7.4923 C   0  0  0  0  0  0  0  0  0  0  0  0
   27.0770    1.5619   -6.4950 N   0  0  0  0  0  0  0  0  0  0  0  0
   28.3132   -0.8717   -8.8070 C   0  0  0  0  0  0  0  0  0  0  0  0
   28.3907   -1.7253   -9.8749 C   0  0  0  0  0  0  0  0  0  0  0  0
   27.3509   -1.8247  -10.7916 C   0  0  0  0  0  0  0  0  0  0  0  0
   27.4074   -2.7066  -11.8831 N   0  0  0  0  0  0  0  0  0  0  0  0
  1  2  1  6
  2  3  1  0
  3  4  2  0
  4  5  1  0
  5  6  1  0
  6  7  1  0
  6  8  2  0
  5  9  2  0
  9 10  1  0
 10 11  2  0
 11 12  1  0
 12 13  1  0
 13 14  2  0
 14 15  1  0
 15 16  1  0
 16 17  3  0
 15 18  2  0
 18 19  1  0
 19 20  2  0
 20 21  1  0
 11  3  1  0
 20 13  1  0
M  END
$$$$
