_rank9
     RDKit          3D

 21 22  0  0  0  0  0  0  0  0999 V2000
   20.6970    1.4505  -12.1608 C   0  0  0  0  0  0  0  0  0  0  0  0
   21.8372    0.7487  -11.7931 O   0  0  0  0  0  0  0  0  0  0  0  0
   21.8228   -0.3831  -10.9734 C   0  0  0  0  0  0  0  0  0  0  0  0
   20.6556   -0.6643  -10.3156 C   0  0  0  0  0  0  0  0  0  0  0  0
   20.5612   -1.7744   -9.4751 C   0  0  0  0  0  0  0  0  0  0  0  0
   19.3148   -2.0525   -8.7856 C   0  0  0  0  0  0  0  0  0  0  0  0
   19.1494   -3.3585   -8.1854 N   0  0  0  0  0  0  0  0  0  0  0  0
   18.3583   -1.2596   -8.6597 O   0  0  0  0  0  0  0  0  0  0  0  0
   21.6797   -2.5485   -9.3485 C   0  0  0  0  0  0  0  0  0  0  0  0
   22.8552   -2.2725  -10.0076 C   0  0  0  0  0  0  0  0  0  0  0  0
   22.9172   -1.1769  -10.8253 C   0  0  0  0  0  0  0  0  0  0  0  0
   24.0978   -0.8845  -11.4973 O   0  0  0  0  0  0  0  0  0  0  0  0
   25.3250   -0.8077  -10.8489 C   0  0  0  0  0  0  0  0  0  0  0  0
   25.3569   -0.3401   -9.5603 C   0  0  0  0  0  0  0  0  0  0  0  0
   26.5188   -0.2210   -8.8247 C   0  0  0  0  0  0  0  0  0  0  0  0
   26.5815    0.2434   -7.5322 C   0  0  0  0  0  0  0  0  0  0  0  0
   26.6589    0.6760   -6.3550 N   0  0  0  0  0  0  0  0  0  0  0  0
   27.6939   -0.6248   -9.5114 C   0  0  0  0  0  0  0  0  0  0  0  0
   27.6664   -1.0919  -10.7983 C   0  0  0  0  0  0  0  0  0  0  0  0
   26.4709   -1.1942  -11.4996 C   0  0  0  0  0  0  0  0  0  0  0  0
   26.4230   -1.6863  -12.8141 N   0  0  0  0  0  0  0  0  0  0  0  0
  1  2  1  6
  2  3  1  0
  3  4  2  0
  4  5  1  0
  5  6  1  0
  6  7  1  0
  6  8  2  0
  5  9  2  0
  9 10  1  0
 10 11  2  0
 11 12  1  0
 12 13  1  0
 13 14  2  0
 14 15  1  0
 15 16  1  0
 16 17  3  0
 15 18  2  0
 18 19  1  0
 19 20  2  0
 20 21  1  0
 11  3  1  0
 20 13  1  0
M  END
$$$$
