_rank19
     RDKit          3D

 21 22  0  0  0  0  0  0  0  0999 V2000
   19.7940    2.3638  -10.0791 C   0  0  0  0  0  0  0  0  0  0  0  0
   21.0004    1.7147  -10.3050 O   0  0  0  0  0  0  0  0  0  0  0  0
   21.3903    0.5468   -9.6441 C   0  0  0  0  0  0  0  0  0  0  0  0
   20.5332    0.0452   -8.7018 C   0  0  0  0  0  0  0  0  0  0  0  0
   20.8515   -1.1153   -7.9950 C   0  0  0  0  0  0  0  0  0  0  0  0
   19.9293   -1.6281   -6.9986 C   0  0  0  0  0  0  0  0  0  0  0  0
   20.4807   -2.3542   -5.8752 N   0  0  0  0  0  0  0  0  0  0  0  0
   18.6874   -1.4999   -7.0198 O   0  0  0  0  0  0  0  0  0  0  0  0
   22.0453   -1.7096   -8.2915 C   0  0  0  0  0  0  0  0  0  0  0  0
   22.9105   -1.2118   -9.2380 C   0  0  0  0  0  0  0  0  0  0  0  0
   22.5707   -0.0721   -9.9151 C   0  0  0  0  0  0  0  0  0  0  0  0
   23.4346    0.4435  -10.8737 O   0  0  0  0  0  0  0  0  0  0  0  0
   24.8086    0.2385  -10.8260 C   0  0  0  0  0  0  0  0  0  0  0  0
   25.4636    0.4620   -9.6423 C   0  0  0  0  0  0  0  0  0  0  0  0
   26.8241    0.2916   -9.4837 C   0  0  0  0  0  0  0  0  0  0  0  0
   27.5075    0.5074   -8.3104 C   0  0  0  0  0  0  0  0  0  0  0  0
   28.1132    0.7043   -7.2272 N   0  0  0  0  0  0  0  0  0  0  0  0
   27.5035   -0.1387  -10.6537 C   0  0  0  0  0  0  0  0  0  0  0  0
   26.8532   -0.3628  -11.8377 C   0  0  0  0  0  0  0  0  0  0  0  0
   25.4803   -0.1776  -11.9492 C   0  0  0  0  0  0  0  0  0  0  0  0
   24.7956   -0.4183  -13.1515 N   0  0  0  0  0  0  0  0  0  0  0  0
  1  2  1  6
  2  3  1  0
  3  4  2  0
  4  5  1  0
  5  6  1  0
  6  7  1  0
  6  8  2  0
  5  9  2  0
  9 10  1  0
 10 11  2  0
 11 12  1  0
 12 13  1  0
 13 14  2  0
 14 15  1  0
 15 16  1  0
 16 17  3  0
 15 18  2  0
 18 19  1  0
 19 20  2  0
 20 21  1  0
 11  3  1  0
 20 13  1  0
M  END
$$$$
