_rank19
     RDKit          3D

 19 21  0  0  0  0  0  0  0  0999 V2000
   21.6161    0.0442   -6.3484 N   0  0  0  0  0  0  0  0  0  0  0  0
   21.5913   -0.3852   -7.4244 C   0  0  0  0  0  0  0  0  0  0  0  0
   21.5641   -0.8909   -8.7525 C   0  0  0  0  0  0  0  0  0  0  0  0
   20.4650   -1.6058   -9.1658 C   0  0  0  0  0  0  0  0  0  0  0  0
   20.4176   -2.1038  -10.4455 C   0  0  0  0  0  0  0  0  0  0  0  0
   19.3469   -2.7988  -10.8444 F   0  0  0  0  0  0  0  0  0  0  0  0
   21.4847   -1.8743  -11.2991 C   0  0  0  0  0  0  0  0  0  0  0  0
   22.5968   -1.1622  -10.9112 C   0  0  0  0  0  0  0  0  0  0  0  0
   23.6176   -0.9807  -11.8306 O   0  0  0  0  0  0  0  0  0  0  0  0
   24.9306   -0.8066  -11.4007 C   0  0  0  0  0  0  0  0  0  0  0  0
   25.7229    0.1396  -12.0192 C   0  0  0  0  0  0  0  0  0  0  0  0
   27.0287    0.3331  -11.6130 C   0  0  0  0  0  0  0  0  0  0  0  0
   27.5705   -0.4133  -10.5816 C   0  0  0  0  0  0  0  0  0  0  0  0
   26.7785   -1.3576   -9.9649 C   0  0  0  0  0  0  0  0  0  0  0  0
   25.4711   -1.5498  -10.3733 C   0  0  0  0  0  0  0  0  0  0  0  0
   27.5234   -1.9950   -8.9525 O   0  0  0  0  0  0  0  0  0  0  0  0
   28.5374   -1.0546   -8.5632 C   0  0  0  0  0  0  0  0  0  0  0  0
   28.8853   -0.4679   -9.9139 C   0  0  0  0  0  0  0  0  0  0  0  0
   22.6318   -0.6691   -9.6279 C   0  0  0  0  0  0  0  0  0  0  0  0
  1  2  3  0
  2  3  1  0
  3  4  2  0
  4  5  1  0
  5  6  1  0
  5  7  2  0
  7  8  1  0
  8  9  1  0
  9 10  1  0
 10 11  2  0
 11 12  1  0
 12 13  2  0
 13 14  1  0
 14 15  2  0
 14 16  1  0
 17 16  1  6
 17 18  1  0
  8 19  2  0
 19  3  1  0
 15 10  1  0
 18 13  1  1
M  END
$$$$
