_rank11
     RDKit          3D

 19 21  0  0  0  0  0  0  0  0999 V2000
   29.2845    1.8651   -8.1334 N   0  0  0  0  0  0  0  0  0  0  0  0
   28.5131    1.0783   -8.4920 C   0  0  0  0  0  0  0  0  0  0  0  0
   27.5542    0.1172   -8.9132 C   0  0  0  0  0  0  0  0  0  0  0  0
   27.3627   -1.0067   -8.1452 C   0  0  0  0  0  0  0  0  0  0  0  0
   26.4410   -1.9487   -8.5335 C   0  0  0  0  0  0  0  0  0  0  0  0
   26.2571   -3.0410   -7.7841 F   0  0  0  0  0  0  0  0  0  0  0  0
   25.7185   -1.7460   -9.6985 C   0  0  0  0  0  0  0  0  0  0  0  0
   25.8903   -0.6302  -10.4857 C   0  0  0  0  0  0  0  0  0  0  0  0
   25.1247   -0.5091  -11.6343 O   0  0  0  0  0  0  0  0  0  0  0  0
   23.7427   -0.6706  -11.5804 C   0  0  0  0  0  0  0  0  0  0  0  0
   22.9914   -0.4348  -12.7143 C   0  0  0  0  0  0  0  0  0  0  0  0
   21.6189   -0.5873  -12.6890 C   0  0  0  0  0  0  0  0  0  0  0  0
   20.9682   -0.9779  -11.5321 C   0  0  0  0  0  0  0  0  0  0  0  0
   21.7193   -1.2131  -10.4008 C   0  0  0  0  0  0  0  0  0  0  0  0
   23.0937   -1.0598  -10.4284 C   0  0  0  0  0  0  0  0  0  0  0  0
   20.8628   -1.5964   -9.3494 O   0  0  0  0  0  0  0  0  0  0  0  0
   19.7014   -2.1618   -9.9784 C   0  0  0  0  0  0  0  0  0  0  0  0
   19.5620   -1.2289  -11.1616 C   0  0  0  0  0  0  0  0  0  0  0  0
   26.8159    0.3050  -10.0859 C   0  0  0  0  0  0  0  0  0  0  0  0
  1  2  3  0
  2  3  1  0
  3  4  2  0
  4  5  1  0
  5  6  1  0
  5  7  2  0
  7  8  1  0
  8  9  1  0
  9 10  1  0
 10 11  2  0
 11 12  1  0
 12 13  2  0
 13 14  1  0
 14 15  2  0
 14 16  1  0
 17 16  1  6
 17 18  1  0
  8 19  2  0
 19  3  1  0
 15 10  1  0
 18 13  1  1
M  END
$$$$
