_rank16
     RDKit          3D

 19 21  0  0  0  0  0  0  0  0999 V2000
   20.0624   -2.3968   -7.2248 N   0  0  0  0  0  0  0  0  0  0  0  0
   20.3996   -1.9932   -8.2574 C   0  0  0  0  0  0  0  0  0  0  0  0
   20.7915   -1.4990   -9.5312 C   0  0  0  0  0  0  0  0  0  0  0  0
   19.8178   -1.0790  -10.4060 C   0  0  0  0  0  0  0  0  0  0  0  0
   20.1740   -0.5977  -11.6426 C   0  0  0  0  0  0  0  0  0  0  0  0
   19.2243   -0.1900  -12.4912 F   0  0  0  0  0  0  0  0  0  0  0  0
   21.5156   -0.5447  -11.9854 C   0  0  0  0  0  0  0  0  0  0  0  0
   22.5104   -0.9585  -11.1290 C   0  0  0  0  0  0  0  0  0  0  0  0
   23.8261   -0.8701  -11.5547 O   0  0  0  0  0  0  0  0  0  0  0  0
   24.8712   -0.9731  -10.6403 C   0  0  0  0  0  0  0  0  0  0  0  0
   25.0812   -2.1716   -9.9883 C   0  0  0  0  0  0  0  0  0  0  0  0
   26.1103   -2.3016   -9.0764 C   0  0  0  0  0  0  0  0  0  0  0  0
   26.9508   -1.2387   -8.7965 C   0  0  0  0  0  0  0  0  0  0  0  0
   26.7402   -0.0427   -9.4481 C   0  0  0  0  0  0  0  0  0  0  0  0
   25.7089    0.0853  -10.3609 C   0  0  0  0  0  0  0  0  0  0  0  0
   27.7013    0.8934   -9.0170 O   0  0  0  0  0  0  0  0  0  0  0  0
   28.8281    0.1201   -8.5739 C   0  0  0  0  0  0  0  0  0  0  0  0
   28.1105   -1.0333   -7.9074 C   0  0  0  0  0  0  0  0  0  0  0  0
   22.1405   -1.4382   -9.8944 C   0  0  0  0  0  0  0  0  0  0  0  0
  1  2  3  0
  2  3  1  0
  3  4  2  0
  4  5  1  0
  5  6  1  0
  5  7  2  0
  7  8  1  0
  8  9  1  0
  9 10  1  0
 10 11  2  0
 11 12  1  0
 12 13  2  0
 13 14  1  0
 14 15  2  0
 14 16  1  0
 17 16  1  6
 17 18  1  0
  8 19  2  0
 19  3  1  0
 15 10  1  0
 18 13  1  1
M  END
$$$$
