_rank5
     RDKit          3D

 19 21  0  0  0  0  0  0  0  0999 V2000
   19.0008    1.2520   -8.3874 N   0  0  0  0  0  0  0  0  0  0  0  0
   19.6064    0.5966   -9.1268 C   0  0  0  0  0  0  0  0  0  0  0  0
   20.3336   -0.2031  -10.0498 C   0  0  0  0  0  0  0  0  0  0  0  0
   19.7051   -1.2781  -10.6322 C   0  0  0  0  0  0  0  0  0  0  0  0
   20.3891   -2.0648  -11.5272 C   0  0  0  0  0  0  0  0  0  0  0  0
   19.7747   -3.1097  -12.0921 F   0  0  0  0  0  0  0  0  0  0  0  0
   21.7066   -1.7572  -11.8269 C   0  0  0  0  0  0  0  0  0  0  0  0
   22.3596   -0.6873  -11.2584 C   0  0  0  0  0  0  0  0  0  0  0  0
   23.6778   -0.4534  -11.6159 O   0  0  0  0  0  0  0  0  0  0  0  0
   24.6977   -0.5929  -10.6782 C   0  0  0  0  0  0  0  0  0  0  0  0
   24.8122   -1.7765   -9.9772 C   0  0  0  0  0  0  0  0  0  0  0  0
   25.8144   -1.9418   -9.0413 C   0  0  0  0  0  0  0  0  0  0  0  0
   26.7226   -0.9298   -8.7859 C   0  0  0  0  0  0  0  0  0  0  0  0
   26.6074    0.2514   -9.4864 C   0  0  0  0  0  0  0  0  0  0  0  0
   25.6030    0.4149  -10.4232 C   0  0  0  0  0  0  0  0  0  0  0  0
   27.6247    1.1346   -9.0729 O   0  0  0  0  0  0  0  0  0  0  0  0
   28.6869    0.3028   -8.5790 C   0  0  0  0  0  0  0  0  0  0  0  0
   27.8790   -0.7708   -7.8830 C   0  0  0  0  0  0  0  0  0  0  0  0
   21.6638    0.0921  -10.3642 C   0  0  0  0  0  0  0  0  0  0  0  0
  1  2  3  0
  2  3  1  0
  3  4  2  0
  4  5  1  0
  5  6  1  0
  5  7  2  0
  7  8  1  0
  8  9  1  0
  9 10  1  0
 10 11  2  0
 11 12  1  0
 12 13  2  0
 13 14  1  0
 14 15  2  0
 14 16  1  0
 17 16  1  6
 17 18  1  0
  8 19  2  0
 19  3  1  0
 15 10  1  0
 18 13  1  1
M  END
$$$$
