_rank2
     RDKit          3D

 19 21  0  0  0  0  0  0  0  0999 V2000
   18.3228   -3.9302  -10.3953 N   0  0  0  0  0  0  0  0  0  0  0  0
   18.9659   -2.9682  -10.4576 C   0  0  0  0  0  0  0  0  0  0  0  0
   19.7736   -1.8011  -10.5349 C   0  0  0  0  0  0  0  0  0  0  0  0
   19.2208   -0.5902  -10.1917 C   0  0  0  0  0  0  0  0  0  0  0  0
   19.9833    0.5508  -10.2590 C   0  0  0  0  0  0  0  0  0  0  0  0
   19.4425    1.7273   -9.9244 F   0  0  0  0  0  0  0  0  0  0  0  0
   21.3021    0.4578  -10.6740 C   0  0  0  0  0  0  0  0  0  0  0  0
   21.8803   -0.7414  -11.0233 C   0  0  0  0  0  0  0  0  0  0  0  0
   23.2059   -0.7416  -11.4269 O   0  0  0  0  0  0  0  0  0  0  0  0
   24.2274   -0.5957  -10.4919 C   0  0  0  0  0  0  0  0  0  0  0  0
   23.9413   -0.7525   -9.1505 C   0  0  0  0  0  0  0  0  0  0  0  0
   24.9353   -0.6133   -8.2017 C   0  0  0  0  0  0  0  0  0  0  0  0
   26.2347   -0.3149   -8.5719 C   0  0  0  0  0  0  0  0  0  0  0  0
   26.5191   -0.1587   -9.9113 C   0  0  0  0  0  0  0  0  0  0  0  0
   25.5222   -0.2985  -10.8597 C   0  0  0  0  0  0  0  0  0  0  0  0
   27.8886    0.1382  -10.0609 O   0  0  0  0  0  0  0  0  0  0  0  0
   28.5368   -0.4158   -8.9046 C   0  0  0  0  0  0  0  0  0  0  0  0
   27.5019   -0.1014   -7.8463 C   0  0  0  0  0  0  0  0  0  0  0  0
   21.1063   -1.8758  -10.9515 C   0  0  0  0  0  0  0  0  0  0  0  0
  1  2  3  0
  2  3  1  0
  3  4  2  0
  4  5  1  0
  5  6  1  0
  5  7  2  0
  7  8  1  0
  8  9  1  0
  9 10  1  0
 10 11  2  0
 11 12  1  0
 12 13  2  0
 13 14  1  0
 14 15  2  0
 14 16  1  0
 17 16  1  6
 17 18  1  0
  8 19  2  0
 19  3  1  0
 15 10  1  0
 18 13  1  1
M  END
$$$$
