_rank17
     RDKit          3D

 19 21  0  0  0  0  0  0  0  0999 V2000
   29.9960    0.7631   -8.2475 N   0  0  0  0  0  0  0  0  0  0  0  0
   28.8802    0.4899   -8.3998 C   0  0  0  0  0  0  0  0  0  0  0  0
   27.5063    0.1770   -8.5863 C   0  0  0  0  0  0  0  0  0  0  0  0
   26.6116    0.5109   -7.5975 C   0  0  0  0  0  0  0  0  0  0  0  0
   25.2788    0.2178   -7.7568 C   0  0  0  0  0  0  0  0  0  0  0  0
   24.4111    0.5440   -6.7929 F   0  0  0  0  0  0  0  0  0  0  0  0
   24.8603   -0.4123   -8.9178 C   0  0  0  0  0  0  0  0  0  0  0  0
   25.7345   -0.7575   -9.9233 C   0  0  0  0  0  0  0  0  0  0  0  0
   25.2287   -1.3852  -11.0503 O   0  0  0  0  0  0  0  0  0  0  0  0
   23.9152   -1.1589  -11.4534 C   0  0  0  0  0  0  0  0  0  0  0  0
   23.6757   -0.3656  -12.5575 C   0  0  0  0  0  0  0  0  0  0  0  0
   22.3828   -0.1246  -12.9793 C   0  0  0  0  0  0  0  0  0  0  0  0
   21.3027   -0.6700  -12.3082 C   0  0  0  0  0  0  0  0  0  0  0  0
   21.5430   -1.4618  -11.2061 C   0  0  0  0  0  0  0  0  0  0  0  0
   22.8386   -1.7019  -10.7854 C   0  0  0  0  0  0  0  0  0  0  0  0
   20.3137   -1.9083  -10.6815 O   0  0  0  0  0  0  0  0  0  0  0  0
   19.3891   -1.8868  -11.7809 C   0  0  0  0  0  0  0  0  0  0  0  0
   19.8376   -0.6206  -12.4777 C   0  0  0  0  0  0  0  0  0  0  0  0
   27.0658   -0.4586   -9.7514 C   0  0  0  0  0  0  0  0  0  0  0  0
  1  2  3  0
  2  3  1  0
  3  4  2  0
  4  5  1  0
  5  6  1  0
  5  7  2  0
  7  8  1  0
  8  9  1  0
  9 10  1  0
 10 11  2  0
 11 12  1  0
 12 13  2  0
 13 14  1  0
 14 15  2  0
 14 16  1  0
 17 16  1  6
 17 18  1  0
  8 19  2  0
 19  3  1  0
 15 10  1  0
 18 13  1  1
M  END
$$$$
