_rank20
     RDKit          3D

 19 21  0  0  0  0  0  0  0  0999 V2000
   28.1325   -3.5610   -6.5845 N   0  0  0  0  0  0  0  0  0  0  0  0
   27.7156   -2.7894   -7.3419 C   0  0  0  0  0  0  0  0  0  0  0  0
   27.1914   -1.8338   -8.2543 C   0  0  0  0  0  0  0  0  0  0  0  0
   28.0615   -0.9823   -8.8928 C   0  0  0  0  0  0  0  0  0  0  0  0
   27.5766   -0.0508   -9.7787 C   0  0  0  0  0  0  0  0  0  0  0  0
   28.4257    0.7761  -10.3982 F   0  0  0  0  0  0  0  0  0  0  0  0
   26.2122    0.0123  -10.0125 C   0  0  0  0  0  0  0  0  0  0  0  0
   25.3193   -0.8279   -9.3870 C   0  0  0  0  0  0  0  0  0  0  0  0
   23.9717   -0.6946   -9.6806 O   0  0  0  0  0  0  0  0  0  0  0  0
   23.5375    0.2855  -10.5695 C   0  0  0  0  0  0  0  0  0  0  0  0
   24.1460    0.3938  -11.8038 C   0  0  0  0  0  0  0  0  0  0  0  0
   23.7354    1.3568  -12.7047 C   0  0  0  0  0  0  0  0  0  0  0  0
   22.7095    2.2311  -12.3925 C   0  0  0  0  0  0  0  0  0  0  0  0
   22.1028    2.1220  -11.1599 C   0  0  0  0  0  0  0  0  0  0  0  0
   22.5156    1.1569  -10.2592 C   0  0  0  0  0  0  0  0  0  0  0  0
   21.0945    3.1008  -11.0533 O   0  0  0  0  0  0  0  0  0  0  0  0
   20.6948    3.3978  -12.4009 C   0  0  0  0  0  0  0  0  0  0  0  0
   22.0395    3.3440  -13.0927 C   0  0  0  0  0  0  0  0  0  0  0  0
   25.8175   -1.7556   -8.5026 C   0  0  0  0  0  0  0  0  0  0  0  0
  1  2  3  0
  2  3  1  0
  3  4  2  0
  4  5  1  0
  5  6  1  0
  5  7  2  0
  7  8  1  0
  8  9  1  0
  9 10  1  0
 10 11  2  0
 11 12  1  0
 12 13  2  0
 13 14  1  0
 14 15  2  0
 14 16  1  0
 17 16  1  6
 17 18  1  0
  8 19  2  0
 19  3  1  0
 15 10  1  0
 18 13  1  1
M  END
$$$$
