_rank10
     RDKit          3D

 19 21  0  0  0  0  0  0  0  0999 V2000
   30.2302   -0.7644  -10.8146 N   0  0  0  0  0  0  0  0  0  0  0  0
   29.1163   -0.6729  -10.5086 C   0  0  0  0  0  0  0  0  0  0  0  0
   27.7551   -0.5690  -10.1126 C   0  0  0  0  0  0  0  0  0  0  0  0
   27.4626   -0.4509   -8.7746 C   0  0  0  0  0  0  0  0  0  0  0  0
   26.1537   -0.3492   -8.3693 C   0  0  0  0  0  0  0  0  0  0  0  0
   25.8726   -0.2344   -7.0669 F   0  0  0  0  0  0  0  0  0  0  0  0
   25.1485   -0.3678   -9.3230 C   0  0  0  0  0  0  0  0  0  0  0  0
   25.4134   -0.4850  -10.6685 C   0  0  0  0  0  0  0  0  0  0  0  0
   24.3462   -0.4949  -11.5523 O   0  0  0  0  0  0  0  0  0  0  0  0
   23.0425   -0.6292  -11.0817 C   0  0  0  0  0  0  0  0  0  0  0  0
   22.7222   -0.1360   -9.8328 C   0  0  0  0  0  0  0  0  0  0  0  0
   21.4370   -0.2556   -9.3414 C   0  0  0  0  0  0  0  0  0  0  0  0
   20.4454   -0.8697  -10.0858 C   0  0  0  0  0  0  0  0  0  0  0  0
   20.7664   -1.3616  -11.3325 C   0  0  0  0  0  0  0  0  0  0  0  0
   22.0541   -1.2407  -11.8227 C   0  0  0  0  0  0  0  0  0  0  0  0
   19.6186   -1.9402  -11.9101 O   0  0  0  0  0  0  0  0  0  0  0  0
   18.4986   -1.2852  -11.2931 C   0  0  0  0  0  0  0  0  0  0  0  0
   19.0140   -1.1608   -9.8759 C   0  0  0  0  0  0  0  0  0  0  0  0
   26.7275   -0.5860  -11.0608 C   0  0  0  0  0  0  0  0  0  0  0  0
  1  2  3  0
  2  3  1  0
  3  4  2  0
  4  5  1  0
  5  6  1  0
  5  7  2  0
  7  8  1  0
  8  9  1  0
  9 10  1  0
 10 11  2  0
 11 12  1  0
 12 13  2  0
 13 14  1  0
 14 15  2  0
 14 16  1  0
 17 16  1  6
 17 18  1  0
  8 19  2  0
 19  3  1  0
 15 10  1  0
 18 13  1  1
M  END
$$$$
