_rank6
     RDKit          3D

 19 21  0  0  0  0  0  0  0  0999 V2000
   27.0218   -0.0164   -6.9144 N   0  0  0  0  0  0  0  0  0  0  0  0
   26.7474   -0.1287   -8.0347 C   0  0  0  0  0  0  0  0  0  0  0  0
   26.4271   -0.2513   -9.4141 C   0  0  0  0  0  0  0  0  0  0  0  0
   27.3577    0.1411  -10.3467 C   0  0  0  0  0  0  0  0  0  0  0  0
   27.0691    0.0314  -11.6855 C   0  0  0  0  0  0  0  0  0  0  0  0
   27.9766    0.4141  -12.5902 F   0  0  0  0  0  0  0  0  0  0  0  0
   25.8386   -0.4756  -12.0714 C   0  0  0  0  0  0  0  0  0  0  0  0
   24.8891   -0.8757  -11.1589 C   0  0  0  0  0  0  0  0  0  0  0  0
   23.6853   -1.3710  -11.6339 O   0  0  0  0  0  0  0  0  0  0  0  0
   22.4846   -0.9998  -11.0342 C   0  0  0  0  0  0  0  0  0  0  0  0
   21.6723   -1.9749  -10.4910 C   0  0  0  0  0  0  0  0  0  0  0  0
   20.4761   -1.6348   -9.8902 C   0  0  0  0  0  0  0  0  0  0  0  0
   20.0661   -0.3152   -9.8191 C   0  0  0  0  0  0  0  0  0  0  0  0
   20.8779    0.6573  -10.3616 C   0  0  0  0  0  0  0  0  0  0  0  0
   22.0754    0.3145  -10.9629 C   0  0  0  0  0  0  0  0  0  0  0  0
   20.2736    1.9174  -10.1799 O   0  0  0  0  0  0  0  0  0  0  0  0
   19.4186    1.7786   -9.0337 C   0  0  0  0  0  0  0  0  0  0  0  0
   18.8873    0.3814   -9.2687 C   0  0  0  0  0  0  0  0  0  0  0  0
   25.1904   -0.7607   -9.8221 C   0  0  0  0  0  0  0  0  0  0  0  0
  1  2  3  0
  2  3  1  0
  3  4  2  0
  4  5  1  0
  5  6  1  0
  5  7  2  0
  7  8  1  0
  8  9  1  0
  9 10  1  0
 10 11  2  0
 11 12  1  0
 12 13  2  0
 13 14  1  0
 14 15  2  0
 14 16  1  0
 17 16  1  6
 17 18  1  0
  8 19  2  0
 19  3  1  0
 15 10  1  0
 18 13  1  1
M  END
$$$$
