_rank8
     RDKit          3D

 20 21  0  0  0  0  0  0  0  0999 V2000
   27.7464    1.1250  -13.3387 C   0  0  0  0  0  0  0  0  0  0  0  0
   26.8737    0.9054  -12.1491 C   0  0  0  0  0  0  0  0  0  0  0  0
   26.7866   -0.4362  -11.7646 O   0  0  0  0  0  0  0  0  0  0  0  0
   26.7542   -0.5339  -10.3755 C   0  0  1  0  0  0  0  0  0  0  0  0
   27.8018    0.4200   -9.8435 C   0  0  0  0  0  0  0  0  0  0  0  0
   27.1428    0.7749   -8.2127 S   0  0  1  0  0  6  0  0  0  0  0  0
   27.9661    0.1710   -7.1397 O   0  0  0  0  0  0  0  0  0  0  0  0
   26.8910    2.2264   -8.0315 O   0  0  0  0  0  0  0  0  0  0  0  0
   25.5536   -0.0499   -8.3691 C   0  0  0  0  0  0  0  0  0  0  0  0
   25.4165   -0.0112   -9.8989 C   0  0  2  0  0  0  0  0  0  0  0  0
   24.4064   -0.8491  -10.3144 O   0  0  0  0  0  0  0  0  0  0  0  0
   23.0427   -0.6308  -10.2714 C   0  0  0  0  0  0  0  0  0  0  0  0
   22.5117    0.6137   -9.9663 C   0  0  0  0  0  0  0  0  0  0  0  0
   21.1513    0.8339   -9.9228 C   0  0  0  0  0  0  0  0  0  0  0  0
   20.6290    2.0496   -9.6249 F   0  0  0  0  0  0  0  0  0  0  0  0
   20.2881   -0.1990  -10.1868 C   0  0  0  0  0  0  0  0  0  0  0  0
   20.7753   -1.4506  -10.4941 C   0  0  0  0  0  0  0  0  0  0  0  0
   19.8629   -2.5320  -10.7706 C   0  0  0  0  0  0  0  0  0  0  0  0
   19.1371   -3.4115  -10.9784 N   0  0  0  0  0  0  0  0  0  0  0  0
   22.1568   -1.6497  -10.5321 C   0  0  0  0  0  0  0  0  0  0  0  0
  1  2  1  6
  2  3  1  1
  4  3  1  6
  5  4  1  6
  6  5  1  6
  6  7  2  0
  6  8  2  0
  6  9  1  0
  9 10  1  1
 10 11  1  1
 11 12  1  0
 12 13  2  0
 13 14  1  0
 14 15  1  0
 14 16  2  0
 16 17  1  0
 17 18  1  0
 18 19  3  0
 17 20  2  0
 10  4  1  0
 20 12  1  0
M  END
$$$$
