_rank16
     RDKit          3D

 20 21  0  0  0  0  0  0  0  0999 V2000
   26.1022    4.0245  -12.5495 C   0  0  0  0  0  0  0  0  0  0  0  0
   26.1771    2.5487  -12.3461 C   0  0  0  0  0  0  0  0  0  0  0  0
   26.0452    2.1654  -11.0078 O   0  0  0  0  0  0  0  0  0  0  0  0
   26.4579    0.8448  -10.8463 C   0  0  1  0  0  0  0  0  0  0  0  0
   27.6716    0.8713   -9.9426 C   0  0  0  0  0  0  0  0  0  0  0  0
   27.5951   -0.7698   -9.2209 S   0  0  1  0  0  6  0  0  0  0  0  0
   28.6866   -1.6420   -9.7125 O   0  0  0  0  0  0  0  0  0  0  0  0
   27.4949   -0.7094   -7.7413 O   0  0  0  0  0  0  0  0  0  0  0  0
   25.9980   -1.2833   -9.8659 C   0  0  0  0  0  0  0  0  0  0  0  0
   25.3765    0.1038  -10.0906 C   0  0  2  0  0  0  0  0  0  0  0  0
   24.2422    0.0049  -10.8642 O   0  0  0  0  0  0  0  0  0  0  0  0
   23.0947   -0.7215  -10.6099 C   0  0  0  0  0  0  0  0  0  0  0  0
   22.7681   -1.1467   -9.3306 C   0  0  0  0  0  0  0  0  0  0  0  0
   21.6236   -1.8716   -9.0745 C   0  0  0  0  0  0  0  0  0  0  0  0
   21.3014   -2.2888   -7.8248 F   0  0  0  0  0  0  0  0  0  0  0  0
   20.7758   -2.1878  -10.1055 C   0  0  0  0  0  0  0  0  0  0  0  0
   21.0640   -1.7843  -11.3910 C   0  0  0  0  0  0  0  0  0  0  0  0
   20.1690   -2.1196  -12.4701 C   0  0  0  0  0  0  0  0  0  0  0  0
   19.4523   -2.3718  -13.3456 N   0  0  0  0  0  0  0  0  0  0  0  0
   22.2288   -1.0511  -11.6262 C   0  0  0  0  0  0  0  0  0  0  0  0
  1  2  1  6
  2  3  1  1
  4  3  1  1
  5  4  1  6
  6  5  1  6
  6  7  2  0
  6  8  2  0
  6  9  1  0
  9 10  1  1
 10 11  1  6
 11 12  1  0
 12 13  2  0
 13 14  1  0
 14 15  1  0
 14 16  2  0
 16 17  1  0
 17 18  1  0
 18 19  3  0
 17 20  2  0
 10  4  1  0
 20 12  1  0
M  END
$$$$
