_rank4
     RDKit          3D

 20 21  0  0  0  0  0  0  0  0999 V2000
   27.5983   -0.7897   -8.0992 C   0  0  0  0  0  0  0  0  0  0  0  0
   26.9127    0.5234   -8.2744 C   0  0  0  0  0  0  0  0  0  0  0  0
   25.7692    0.4500   -9.0758 O   0  0  0  0  0  0  0  0  0  0  0  0
   26.0327    0.9855  -10.3344 C   0  0  1  0  0  0  0  0  0  0  0  0
   27.3327    0.3729  -10.8089 C   0  0  0  0  0  0  0  0  0  0  0  0
   27.1363    0.4926  -12.5885 S   0  0  1  0  0  6  0  0  0  0  0  0
   28.0523    1.4950  -13.1802 O   0  0  0  0  0  0  0  0  0  0  0  0
   27.2079   -0.8416  -13.2349 O   0  0  0  0  0  0  0  0  0  0  0  0
   25.4272    1.0460  -12.6433 C   0  0  0  0  0  0  0  0  0  0  0  0
   24.9588    0.5025  -11.2847 C   0  0  2  0  0  0  0  0  0  0  0  0
   23.7427    1.0476  -10.9400 O   0  0  0  0  0  0  0  0  0  0  0  0
   22.5536    0.3918  -10.6848 C   0  0  0  0  0  0  0  0  0  0  0  0
   22.4047   -0.9674  -10.9174 C   0  0  0  0  0  0  0  0  0  0  0  0
   21.2191   -1.6238  -10.6635 C   0  0  0  0  0  0  0  0  0  0  0  0
   21.0703   -2.9528  -10.8898 F   0  0  0  0  0  0  0  0  0  0  0  0
   20.1490   -0.9240  -10.1665 C   0  0  0  0  0  0  0  0  0  0  0  0
   20.2559    0.4277   -9.9216 C   0  0  0  0  0  0  0  0  0  0  0  0
   19.1277    1.1575   -9.3993 C   0  0  0  0  0  0  0  0  0  0  0  0
   18.2090    1.7299   -8.9847 N   0  0  0  0  0  0  0  0  0  0  0  0
   21.4665    1.0710  -10.1865 C   0  0  0  0  0  0  0  0  0  0  0  0
  1  2  1  6
  2  3  1  1
  4  3  1  1
  5  4  1  6
  6  5  1  1
  6  7  2  0
  6  8  2  0
  6  9  1  0
  9 10  1  1
 10 11  1  1
 11 12  1  0
 12 13  2  0
 13 14  1  0
 14 15  1  0
 14 16  2  0
 16 17  1  0
 17 18  1  0
 18 19  3  0
 17 20  2  0
 10  4  1  0
 20 12  1  0
M  END
$$$$
