_rank19
     RDKit          3D

 20 21  0  0  0  0  0  0  0  0999 V2000
   22.0231   -2.7472  -14.0551 C   0  0  0  0  0  0  0  0  0  0  0  0
   21.3936   -2.0938  -12.8712 C   0  0  0  0  0  0  0  0  0  0  0  0
   21.3877   -0.6974  -12.9456 O   0  0  0  0  0  0  0  0  0  0  0  0
   21.2581   -0.1516  -11.6707 C   0  0  1  0  0  0  0  0  0  0  0  0
   20.1478   -0.9118  -10.9781 C   0  0  0  0  0  0  0  0  0  0  0  0
   20.6085   -0.6957   -9.2574 S   0  0  1  0  0  6  0  0  0  0  0  0
   19.6702    0.1991   -8.5414 O   0  0  0  0  0  0  0  0  0  0  0  0
   20.8257   -2.0006   -8.5842 O   0  0  0  0  0  0  0  0  0  0  0  0
   22.2117    0.0815   -9.4941 C   0  0  0  0  0  0  0  0  0  0  0  0
   22.5266   -0.4492  -10.9012 C   0  0  2  0  0  0  0  0  0  0  0  0
   23.5851    0.2383  -11.4506 O   0  0  0  0  0  0  0  0  0  0  0  0
   24.9308    0.1039  -11.1678 C   0  0  0  0  0  0  0  0  0  0  0  0
   25.8862    0.0507  -12.1719 C   0  0  0  0  0  0  0  0  0  0  0  0
   27.2297   -0.0834  -11.8920 C   0  0  0  0  0  0  0  0  0  0  0  0
   28.1663   -0.1357  -12.8715 F   0  0  0  0  0  0  0  0  0  0  0  0
   27.6459   -0.1677  -10.5876 C   0  0  0  0  0  0  0  0  0  0  0  0
   26.7284   -0.1188   -9.5609 C   0  0  0  0  0  0  0  0  0  0  0  0
   27.1721   -0.2078   -8.1922 C   0  0  0  0  0  0  0  0  0  0  0  0
   27.5283   -0.2600   -7.0903 N   0  0  0  0  0  0  0  0  0  0  0  0
   25.3732    0.0174   -9.8686 C   0  0  0  0  0  0  0  0  0  0  0  0
  1  2  1  6
  2  3  1  1
  4  3  1  6
  5  4  1  6
  6  5  1  6
  6  7  2  0
  6  8  2  0
  6  9  1  0
  9 10  1  1
 10 11  1  6
 11 12  1  0
 12 13  2  0
 13 14  1  0
 14 15  1  0
 14 16  2  0
 16 17  1  0
 17 18  1  0
 18 19  3  0
 17 20  2  0
 10  4  1  0
 20 12  1  0
M  END
$$$$
