_rank2
     RDKit          3D

 20 21  0  0  0  0  0  0  0  0999 V2000
   27.3993    0.1521   -7.6144 C   0  0  0  0  0  0  0  0  0  0  0  0
   27.5841   -0.6442   -8.8621 C   0  0  0  0  0  0  0  0  0  0  0  0
   26.4031   -0.8163   -9.5907 O   0  0  0  0  0  0  0  0  0  0  0  0
   26.2626    0.2098  -10.5221 C   0  0  1  0  0  0  0  0  0  0  0  0
   27.3275   -0.0045  -11.5759 C   0  0  0  0  0  0  0  0  0  0  0  0
   26.5748    0.8033  -12.9903 S   0  0  1  0  0  6  0  0  0  0  0  0
   27.2765    2.0572  -13.3498 O   0  0  0  0  0  0  0  0  0  0  0  0
   26.4042   -0.1363  -14.1266 O   0  0  0  0  0  0  0  0  0  0  0  0
   24.9516    1.1318  -12.2920 C   0  0  0  0  0  0  0  0  0  0  0  0
   24.9300    0.0343  -11.2170 C   0  0  2  0  0  0  0  0  0  0  0  0
   23.9012    0.2496  -10.3280 O   0  0  0  0  0  0  0  0  0  0  0  0
   22.5906   -0.1785  -10.4173 C   0  0  0  0  0  0  0  0  0  0  0  0
   22.2573   -1.3938  -10.9969 C   0  0  0  0  0  0  0  0  0  0  0  0
   20.9501   -1.8230  -11.0871 C   0  0  0  0  0  0  0  0  0  0  0  0
   20.6209   -3.0108  -11.6531 F   0  0  0  0  0  0  0  0  0  0  0  0
   19.9416   -1.0350  -10.5935 C   0  0  0  0  0  0  0  0  0  0  0  0
   20.2307    0.1793  -10.0102 C   0  0  0  0  0  0  0  0  0  0  0  0
   19.1664    1.0028   -9.4932 C   0  0  0  0  0  0  0  0  0  0  0  0
   18.3098    1.6538   -9.0618 N   0  0  0  0  0  0  0  0  0  0  0  0
   21.5618    0.5931   -9.9300 C   0  0  0  0  0  0  0  0  0  0  0  0
  1  2  1  6
  2  3  1  1
  4  3  1  1
  5  4  1  6
  6  5  1  1
  6  7  2  0
  6  8  2  0
  6  9  1  0
  9 10  1  1
 10 11  1  1
 11 12  1  0
 12 13  2  0
 13 14  1  0
 14 15  1  0
 14 16  2  0
 16 17  1  0
 17 18  1  0
 18 19  3  0
 17 20  2  0
 10  4  1  0
 20 12  1  0
M  END
$$$$
