_rank9
     RDKit          3D

 20 21  0  0  0  0  0  0  0  0999 V2000
   26.5868    0.1936  -13.9981 C   0  0  0  0  0  0  0  0  0  0  0  0
   26.9547    0.0035  -12.5651 C   0  0  0  0  0  0  0  0  0  0  0  0
   25.8890    0.2173  -11.6854 O   0  0  0  0  0  0  0  0  0  0  0  0
   26.2068   -0.2747  -10.4215 C   0  0  1  0  0  0  0  0  0  0  0  0
   27.3206    0.5946   -9.8792 C   0  0  0  0  0  0  0  0  0  0  0  0
   27.0767    0.3981   -8.1123 S   0  0  1  0  0  6  0  0  0  0  0  0
   28.1615   -0.3945   -7.4887 O   0  0  0  0  0  0  0  0  0  0  0  0
   26.8284    1.7024   -7.4488 O   0  0  0  0  0  0  0  0  0  0  0  0
   25.5278   -0.5130   -8.1448 C   0  0  0  0  0  0  0  0  0  0  0  0
   25.0129   -0.0554   -9.5182 C   0  0  2  0  0  0  0  0  0  0  0  0
   23.9604   -0.8434   -9.9261 O   0  0  0  0  0  0  0  0  0  0  0  0
   22.6266   -0.4993  -10.0341 C   0  0  0  0  0  0  0  0  0  0  0  0
   22.2292    0.7844  -10.3778 C   0  0  0  0  0  0  0  0  0  0  0  0
   20.8988    1.1300  -10.4862 C   0  0  0  0  0  0  0  0  0  0  0  0
   20.5070    2.3843  -10.8221 F   0  0  0  0  0  0  0  0  0  0  0  0
   19.9313    0.1867  -10.2499 C   0  0  0  0  0  0  0  0  0  0  0  0
   20.2844   -1.0999   -9.9060 C   0  0  0  0  0  0  0  0  0  0  0  0
   19.2630   -2.0867   -9.6590 C   0  0  0  0  0  0  0  0  0  0  0  0
   18.4361   -2.8788   -9.4789 N   0  0  0  0  0  0  0  0  0  0  0  0
   21.6380   -1.4267   -9.8023 C   0  0  0  0  0  0  0  0  0  0  0  0
  1  2  1  6
  2  3  1  1
  4  3  1  6
  5  4  1  6
  6  5  1  6
  6  7  2  0
  6  8  2  0
  6  9  1  0
  9 10  1  1
 10 11  1  6
 11 12  1  0
 12 13  2  0
 13 14  1  0
 14 15  1  0
 14 16  2  0
 16 17  1  0
 17 18  1  0
 18 19  3  0
 17 20  2  0
 10  4  1  0
 20 12  1  0
M  END
$$$$
