_rank10
     RDKit          3D

 20 21  0  0  0  0  0  0  0  0999 V2000
   26.7082    2.6730  -12.2089 C   0  0  0  0  0  0  0  0  0  0  0  0
   25.9736    1.3776  -12.2941 C   0  0  0  0  0  0  0  0  0  0  0  0
   26.8137    0.2601  -12.2669 O   0  0  0  0  0  0  0  0  0  0  0  0
   26.7878   -0.3264  -11.0038 C   0  0  1  0  0  0  0  0  0  0  0  0
   27.8973    0.3149  -10.1988 C   0  0  0  0  0  0  0  0  0  0  0  0
   27.2763    0.0980   -8.5293 S   0  0  1  0  0  6  0  0  0  0  0  0
   28.0702   -0.8941   -7.7681 O   0  0  0  0  0  0  0  0  0  0  0  0
   27.1167    1.3999   -7.8346 O   0  0  0  0  0  0  0  0  0  0  0  0
   25.6377   -0.5279   -8.9210 C   0  0  0  0  0  0  0  0  0  0  0  0
   25.4895    0.0633  -10.3314 C   0  0  2  0  0  0  0  0  0  0  0  0
   24.4257   -0.5137  -10.9873 O   0  0  0  0  0  0  0  0  0  0  0  0
   23.0811   -0.4190  -10.6838 C   0  0  0  0  0  0  0  0  0  0  0  0
   22.4235    0.8019  -10.6537 C   0  0  0  0  0  0  0  0  0  0  0  0
   21.0818    0.8988  -10.3511 C   0  0  0  0  0  0  0  0  0  0  0  0
   20.4359    2.0911  -10.3209 F   0  0  0  0  0  0  0  0  0  0  0  0
   20.3659   -0.2371  -10.0698 C   0  0  0  0  0  0  0  0  0  0  0  0
   20.9820   -1.4694  -10.0890 C   0  0  0  0  0  0  0  0  0  0  0  0
   20.2242   -2.6593   -9.7926 C   0  0  0  0  0  0  0  0  0  0  0  0
   19.6169   -3.6219   -9.5727 N   0  0  0  0  0  0  0  0  0  0  0  0
   22.3416   -1.5428  -10.3983 C   0  0  0  0  0  0  0  0  0  0  0  0
  1  2  1  6
  2  3  1  1
  4  3  1  6
  5  4  1  6
  6  5  1  6
  6  7  2  0
  6  8  2  0
  6  9  1  0
  9 10  1  1
 10 11  1  6
 11 12  1  0
 12 13  2  0
 13 14  1  0
 14 15  1  0
 14 16  2  0
 16 17  1  0
 17 18  1  0
 18 19  3  0
 17 20  2  0
 10  4  1  0
 20 12  1  0
M  END
$$$$
