_rank7
     RDKit          3D

 20 21  0  0  0  0  0  0  0  0999 V2000
   27.4400    0.4908  -14.0239 C   0  0  0  0  0  0  0  0  0  0  0  0
   27.5014    0.8193  -12.5702 C   0  0  0  0  0  0  0  0  0  0  0  0
   26.2457    0.8582  -11.9563 O   0  0  0  0  0  0  0  0  0  0  0  0
   26.2700    0.1256  -10.7719 C   0  0  1  0  0  0  0  0  0  0  0  0
   27.1962    0.8552   -9.8230 C   0  0  0  0  0  0  0  0  0  0  0  0
   26.5467    0.3238   -8.2369 S   0  0  1  0  0  6  0  0  0  0  0  0
   27.4767   -0.5921   -7.5369 O   0  0  0  0  0  0  0  0  0  0  0  0
   26.1080    1.4785   -7.4140 O   0  0  0  0  0  0  0  0  0  0  0  0
   25.0785   -0.5387   -8.8122 C   0  0  0  0  0  0  0  0  0  0  0  0
   24.8898    0.1847  -10.1545 C   0  0  2  0  0  0  0  0  0  0  0  0
   23.9889   -0.4922  -10.9451 O   0  0  0  0  0  0  0  0  0  0  0  0
   22.6222   -0.6069  -10.7777 C   0  0  0  0  0  0  0  0  0  0  0  0
   21.9141   -1.6912  -11.2747 C   0  0  0  0  0  0  0  0  0  0  0  0
   20.5503   -1.8077  -11.1088 C   0  0  0  0  0  0  0  0  0  0  0  0
   19.8551   -2.8667  -11.5935 F   0  0  0  0  0  0  0  0  0  0  0  0
   19.8627   -0.8304  -10.4352 C   0  0  0  0  0  0  0  0  0  0  0  0
   20.5290    0.2628   -9.9260 C   0  0  0  0  0  0  0  0  0  0  0  0
   19.8008    1.2865   -9.2189 C   0  0  0  0  0  0  0  0  0  0  0  0
   19.1991    2.1043   -8.6597 N   0  0  0  0  0  0  0  0  0  0  0  0
   21.9103    0.3593  -10.1062 C   0  0  0  0  0  0  0  0  0  0  0  0
  1  2  1  6
  2  3  1  1
  4  3  1  6
  5  4  1  6
  6  5  1  6
  6  7  2  0
  6  8  2  0
  6  9  1  0
  9 10  1  1
 10 11  1  6
 11 12  1  0
 12 13  2  0
 13 14  1  0
 14 15  1  0
 14 16  2  0
 16 17  1  0
 17 18  1  0
 18 19  3  0
 17 20  2  0
 10  4  1  0
 20 12  1  0
M  END
$$$$
