_rank11
     RDKit          3D

 20 21  0  0  0  0  0  0  0  0999 V2000
   25.5390    4.4624   -9.8295 C   0  0  0  0  0  0  0  0  0  0  0  0
   26.0745    3.0832   -9.6398 C   0  0  0  0  0  0  0  0  0  0  0  0
   25.1465    2.0812   -9.9402 O   0  0  0  0  0  0  0  0  0  0  0  0
   25.7012    1.1691  -10.8350 C   0  0  1  0  0  0  0  0  0  0  0  0
   27.0130    0.7090  -10.2366 C   0  0  0  0  0  0  0  0  0  0  0  0
   27.1876   -0.9059  -10.9991 S   0  0  1  0  0  6  0  0  0  0  0  0
   28.2852   -0.9328  -11.9932 O   0  0  0  0  0  0  0  0  0  0  0  0
   27.2733   -1.9822   -9.9806 O   0  0  0  0  0  0  0  0  0  0  0  0
   25.5774   -1.0158  -11.7900 C   0  0  0  0  0  0  0  0  0  0  0  0
   24.8021   -0.0470  -10.8840 C   0  0  2  0  0  0  0  0  0  0  0  0
   23.5924    0.2821  -11.4525 O   0  0  0  0  0  0  0  0  0  0  0  0
   22.3394   -0.2097  -11.1409 C   0  0  0  0  0  0  0  0  0  0  0  0
   21.8969   -1.4352  -11.6166 C   0  0  0  0  0  0  0  0  0  0  0  0
   20.6470   -1.9280  -11.3069 C   0  0  0  0  0  0  0  0  0  0  0  0
   20.2114   -3.1258  -11.7706 F   0  0  0  0  0  0  0  0  0  0  0  0
   19.8079   -1.1951  -10.5066 C   0  0  0  0  0  0  0  0  0  0  0  0
   20.2096    0.0272  -10.0135 C   0  0  0  0  0  0  0  0  0  0  0  0
   19.3232    0.7925   -9.1729 C   0  0  0  0  0  0  0  0  0  0  0  0
   18.6148    1.4238   -8.5071 N   0  0  0  0  0  0  0  0  0  0  0  0
   21.4799    0.5058  -10.3406 C   0  0  0  0  0  0  0  0  0  0  0  0
  1  2  1  6
  2  3  1  1
  4  3  1  1
  5  4  1  6
  6  5  1  1
  6  7  2  0
  6  8  2  0
  6  9  1  0
  9 10  1  1
 10 11  1  6
 11 12  1  0
 12 13  2  0
 13 14  1  0
 14 15  1  0
 14 16  2  0
 16 17  1  0
 17 18  1  0
 18 19  3  0
 17 20  2  0
 10  4  1  0
 20 12  1  0
M  END
$$$$
