_rank18
     RDKit          3D

 20 21  0  0  0  0  0  0  0  0999 V2000
   21.2297   -2.4485  -11.4337 C   0  0  0  0  0  0  0  0  0  0  0  0
   22.5893   -2.0637  -11.9117 C   0  0  0  0  0  0  0  0  0  0  0  0
   22.7387   -0.6878  -12.1115 O   0  0  0  0  0  0  0  0  0  0  0  0
   24.0560   -0.3956  -12.4573 C   0  0  1  0  0  0  0  0  0  0  0  0
   24.0015    0.6462  -13.5538 C   0  0  0  0  0  0  0  0  0  0  0  0
   25.5892    1.4534  -13.3362 S   0  0  1  0  0  6  0  0  0  0  0  0
   26.5195    1.1537  -14.4491 O   0  0  0  0  0  0  0  0  0  0  0  0
   25.4295    2.9031  -13.0608 O   0  0  0  0  0  0  0  0  0  0  0  0
   26.1027    0.6512  -11.8120 C   0  0  0  0  0  0  0  0  0  0  0  0
   24.7179    0.2668  -11.2687 C   0  0  2  0  0  0  0  0  0  0  0  0
   24.8381   -0.6320  -10.2330 O   0  0  0  0  0  0  0  0  0  0  0  0
   25.4579   -0.4506   -9.0115 C   0  0  0  0  0  0  0  0  0  0  0  0
   24.7859    0.0889   -7.9247 C   0  0  0  0  0  0  0  0  0  0  0  0
   25.4023    0.2708   -6.7048 C   0  0  0  0  0  0  0  0  0  0  0  0
   24.7480    0.7981   -5.6402 F   0  0  0  0  0  0  0  0  0  0  0  0
   26.7171   -0.0880   -6.5488 C   0  0  0  0  0  0  0  0  0  0  0  0
   27.4201   -0.6275   -7.6039 C   0  0  0  0  0  0  0  0  0  0  0  0
   28.8016   -1.0026   -7.4335 C   0  0  0  0  0  0  0  0  0  0  0  0
   29.9173   -1.2915   -7.3104 N   0  0  0  0  0  0  0  0  0  0  0  0
   26.7749   -0.8023   -8.8297 C   0  0  0  0  0  0  0  0  0  0  0  0
  1  2  1  6
  2  3  1  1
  4  3  1  1
  5  4  1  6
  6  5  1  6
  6  7  2  0
  6  8  2  0
  6  9  1  0
  9 10  1  1
 10 11  1  1
 11 12  1  0
 12 13  2  0
 13 14  1  0
 14 15  1  0
 14 16  2  0
 16 17  1  0
 17 18  1  0
 18 19  3  0
 17 20  2  0
 10  4  1  0
 20 12  1  0
M  END
$$$$
