_rank5
     RDKit          3D

 20 21  0  0  0  0  0  0  0  0999 V2000
   28.1470   -1.3669   -8.0389 C   0  0  0  0  0  0  0  0  0  0  0  0
   27.6418   -0.0361   -8.4848 C   0  0  0  0  0  0  0  0  0  0  0  0
   26.3320   -0.0748   -8.9731 O   0  0  0  0  0  0  0  0  0  0  0  0
   26.2637    0.5651  -10.2084 C   0  0  1  0  0  0  0  0  0  0  0  0
   27.4380    0.0703  -11.0249 C   0  0  0  0  0  0  0  0  0  0  0  0
   26.8170    0.3051  -12.6920 S   0  0  1  0  0  6  0  0  0  0  0  0
   27.5206    1.4025  -13.3952 O   0  0  0  0  0  0  0  0  0  0  0  0
   26.7899   -0.9722  -13.4476 O   0  0  0  0  0  0  0  0  0  0  0  0
   25.1219    0.7536  -12.2970 C   0  0  0  0  0  0  0  0  0  0  0  0
   25.0158    0.0857  -10.9174 C   0  0  2  0  0  0  0  0  0  0  0  0
   23.8948    0.5278  -10.2520 O   0  0  0  0  0  0  0  0  0  0  0  0
   22.6321   -0.0330  -10.2383 C   0  0  0  0  0  0  0  0  0  0  0  0
   22.4044   -1.3300  -10.6741 C   0  0  0  0  0  0  0  0  0  0  0  0
   21.1453   -1.8917  -10.6613 C   0  0  0  0  0  0  0  0  0  0  0  0
   20.9193   -3.1596  -11.0868 F   0  0  0  0  0  0  0  0  0  0  0  0
   20.0793   -1.1574  -10.2071 C   0  0  0  0  0  0  0  0  0  0  0  0
   20.2632    0.1347   -9.7655 C   0  0  0  0  0  0  0  0  0  0  0  0
   19.1390    0.9012   -9.2893 C   0  0  0  0  0  0  0  0  0  0  0  0
   18.2264    1.5152   -8.9236 N   0  0  0  0  0  0  0  0  0  0  0  0
   21.5475    0.6824   -9.7878 C   0  0  0  0  0  0  0  0  0  0  0  0
  1  2  1  6
  2  3  1  1
  4  3  1  1
  5  4  1  6
  6  5  1  1
  6  7  2  0
  6  8  2  0
  6  9  1  0
  9 10  1  1
 10 11  1  1
 11 12  1  0
 12 13  2  0
 13 14  1  0
 14 15  1  0
 14 16  2  0
 16 17  1  0
 17 18  1  0
 18 19  3  0
 17 20  2  0
 10  4  1  0
 20 12  1  0
M  END
$$$$
