_rank15
     RDKit          3D

 20 21  0  0  0  0  0  0  0  0999 V2000
   28.3364   -2.4201  -11.9206 C   0  0  0  0  0  0  0  0  0  0  0  0
   27.7275   -1.0606  -11.8435 C   0  0  0  0  0  0  0  0  0  0  0  0
   26.4203   -1.0652  -11.3470 O   0  0  0  0  0  0  0  0  0  0  0  0
   26.4326   -0.8743   -9.9673 C   0  0  1  0  0  0  0  0  0  0  0  0
   27.5080    0.1498   -9.6752 C   0  0  0  0  0  0  0  0  0  0  0  0
   26.9072    0.8446   -8.1337 S   0  0  1  0  0  6  0  0  0  0  0  0
   27.7586    0.4600   -6.9843 O   0  0  0  0  0  0  0  0  0  0  0  0
   26.6779    2.3065   -8.2485 O   0  0  0  0  0  0  0  0  0  0  0  0
   25.3045    0.0338   -8.0688 C   0  0  0  0  0  0  0  0  0  0  0  0
   25.1174   -0.2409   -9.5689 C   0  0  2  0  0  0  0  0  0  0  0  0
   24.0847   -1.1282   -9.7721 O   0  0  0  0  0  0  0  0  0  0  0  0
   22.7415   -0.8522   -9.9412 C   0  0  0  0  0  0  0  0  0  0  0  0
   22.1853    0.3495   -9.5285 C   0  0  0  0  0  0  0  0  0  0  0  0
   20.8451    0.6270   -9.6963 C   0  0  0  0  0  0  0  0  0  0  0  0
   20.2983    1.8011   -9.2939 F   0  0  0  0  0  0  0  0  0  0  0  0
   20.0283   -0.3035  -10.2868 C   0  0  0  0  0  0  0  0  0  0  0  0
   20.5418   -1.5097  -10.7107 C   0  0  0  0  0  0  0  0  0  0  0  0
   19.6782   -2.4834  -11.3306 C   0  0  0  0  0  0  0  0  0  0  0  0
   18.9700   -3.2622  -11.8160 N   0  0  0  0  0  0  0  0  0  0  0  0
   21.9020   -1.7684  -10.5303 C   0  0  0  0  0  0  0  0  0  0  0  0
  1  2  1  6
  2  3  1  1
  4  3  1  6
  5  4  1  6
  6  5  1  6
  6  7  2  0
  6  8  2  0
  6  9  1  0
  9 10  1  1
 10 11  1  1
 11 12  1  0
 12 13  2  0
 13 14  1  0
 14 15  1  0
 14 16  2  0
 16 17  1  0
 17 18  1  0
 18 19  3  0
 17 20  2  0
 10  4  1  0
 20 12  1  0
M  END
$$$$
