_rank1
     RDKit          3D

 20 21  0  0  0  0  0  0  0  0999 V2000
   27.2713    0.1191   -7.2364 C   0  0  0  0  0  0  0  0  0  0  0  0
   27.6273   -0.1557   -8.6586 C   0  0  0  0  0  0  0  0  0  0  0  0
   26.5373   -0.5603   -9.4355 O   0  0  0  0  0  0  0  0  0  0  0  0
   26.2087    0.4352  -10.3527 C   0  0  1  0  0  0  0  0  0  0  0  0
   27.2282    0.3582  -11.4686 C   0  0  0  0  0  0  0  0  0  0  0  0
   26.2937    1.0552  -12.8327 S   0  0  1  0  0  6  0  0  0  0  0  0
   26.8028    2.3888  -13.2280 O   0  0  0  0  0  0  0  0  0  0  0  0
   26.1806    0.0972  -13.9606 O   0  0  0  0  0  0  0  0  0  0  0  0
   24.6858    1.1711  -12.0381 C   0  0  0  0  0  0  0  0  0  0  0  0
   24.8717    0.0842  -10.9682 C   0  0  2  0  0  0  0  0  0  0  0  0
   23.8782    0.1664  -10.0189 O   0  0  0  0  0  0  0  0  0  0  0  0
   22.5361   -0.1314  -10.1582 C   0  0  0  0  0  0  0  0  0  0  0  0
   22.1072   -1.3056  -10.7589 C   0  0  0  0  0  0  0  0  0  0  0  0
   20.7685   -1.6048  -10.8990 C   0  0  0  0  0  0  0  0  0  0  0  0
   20.3459   -2.7522  -11.4859 F   0  0  0  0  0  0  0  0  0  0  0  0
   19.8244   -0.7243  -10.4352 C   0  0  0  0  0  0  0  0  0  0  0  0
   20.2091    0.4533   -9.8322 C   0  0  0  0  0  0  0  0  0  0  0  0
   19.2121    1.3745   -9.3468 C   0  0  0  0  0  0  0  0  0  0  0  0
   18.4160    2.1114   -8.9384 N   0  0  0  0  0  0  0  0  0  0  0  0
   21.5705    0.7348   -9.7015 C   0  0  0  0  0  0  0  0  0  0  0  0
  1  2  1  6
  2  3  1  1
  4  3  1  1
  5  4  1  6
  6  5  1  1
  6  7  2  0
  6  8  2  0
  6  9  1  0
  9 10  1  1
 10 11  1  1
 11 12  1  0
 12 13  2  0
 13 14  1  0
 14 15  1  0
 14 16  2  0
 16 17  1  0
 17 18  1  0
 18 19  3  0
 17 20  2  0
 10  4  1  0
 20 12  1  0
M  END
$$$$
