_rank5
     RDKit          3D

 19 20  0  0  0  0  0  0  0  0999 V2000
   25.5959    2.5498  -11.5451 C   0  0  0  0  0  0  0  0  0  0  0  0
   25.9994    1.3579  -12.1145 O   0  0  0  0  0  0  0  0  0  0  0  0
   26.1882    0.3412  -11.2279 C   0  0  1  0  0  0  0  0  0  0  0  0
   27.3423    0.5598  -10.2644 C   0  0  0  0  0  0  0  0  0  0  0  0
   27.1245   -0.9048   -9.2386 S   0  0  2  0  0  6  0  0  0  0  0  0
   27.2991   -0.5761   -7.7977 O   0  0  0  0  0  0  0  0  0  0  0  0
   28.0064   -2.0126   -9.7113 O   0  0  0  0  0  0  0  0  0  0  0  0
   25.3979   -1.2300   -9.6349 C   0  0  0  0  0  0  0  0  0  0  0  0
   25.0122    0.0985  -10.3069 C   0  0  2  0  0  0  0  0  0  0  0  0
   23.8455   -0.1072  -11.0215 O   0  0  0  0  0  0  0  0  0  0  0  0
   22.5821   -0.3445  -10.5456 C   0  0  0  0  0  0  0  0  0  0  0  0
   22.2151   -1.5472   -9.9932 C   0  0  0  0  0  0  0  0  0  0  0  0
   20.9403   -1.7996   -9.5080 C   0  0  0  0  0  0  0  0  0  0  0  0
   20.6168   -3.0145   -8.9639 F   0  0  0  0  0  0  0  0  0  0  0  0
   19.9749   -0.8230   -9.5672 C   0  0  0  0  0  0  0  0  0  0  0  0
   20.3111    0.3993  -10.1172 C   0  0  0  0  0  0  0  0  0  0  0  0
   19.3201    1.4183  -10.1817 C   0  0  0  0  0  0  0  0  0  0  0  0
   18.4891    2.2438  -10.2336 N   0  0  0  0  0  0  0  0  0  0  0  0
   21.5821    0.6300  -10.5932 C   0  0  0  0  0  0  0  0  0  0  0  0
  1  2  1  6
  3  2  1  1
  4  3  1  1
  5  4  1  6
  5  6  2  0
  5  7  2  0
  5  8  1  0
  8  9  1  1
  9 10  1  6
 10 11  1  0
 11 12  2  0
 12 13  1  0
 13 14  1  0
 13 15  2  0
 15 16  1  0
 16 17  1  0
 17 18  3  0
 16 19  2  0
  9  3  1  0
 19 11  1  0
M  END
$$$$
