_rank16
     RDKit          3D

 19 20  0  0  0  0  0  0  0  0999 V2000
   27.8683   -1.0635   -8.5576 C   0  0  0  0  0  0  0  0  0  0  0  0
   27.4342   -1.2787   -9.8510 O   0  0  0  0  0  0  0  0  0  0  0  0
   27.1255   -0.1457  -10.5413 C   0  0  1  0  0  0  0  0  0  0  0  0
   28.0865    0.1769  -11.6728 C   0  0  0  0  0  0  0  0  0  0  0  0
   27.2331    1.6079  -12.3578 S   0  0  2  0  0  6  0  0  0  0  0  0
   27.2264    1.5616  -13.8453 O   0  0  0  0  0  0  0  0  0  0  0  0
   27.7980    2.8722  -11.8005 O   0  0  0  0  0  0  0  0  0  0  0  0
   25.5989    1.2686  -11.6813 C   0  0  0  0  0  0  0  0  0  0  0  0
   25.7809   -0.1916  -11.2341 C   0  0  2  0  0  0  0  0  0  0  0  0
   24.7652   -0.4960  -10.3454 O   0  0  0  0  0  0  0  0  0  0  0  0
   23.4987   -0.9450  -10.6159 C   0  0  0  0  0  0  0  0  0  0  0  0
   23.0693   -1.2194  -11.8913 C   0  0  0  0  0  0  0  0  0  0  0  0
   21.7906   -1.6743  -12.1780 C   0  0  0  0  0  0  0  0  0  0  0  0
   21.4039   -1.9364  -13.4658 F   0  0  0  0  0  0  0  0  0  0  0  0
   20.8855   -1.8705  -11.1623 C   0  0  0  0  0  0  0  0  0  0  0  0
   21.2854   -1.6040   -9.8667 C   0  0  0  0  0  0  0  0  0  0  0  0
   20.3572   -1.8056   -8.8073 C   0  0  0  0  0  0  0  0  0  0  0  0
   19.5804   -1.9576   -7.9423 N   0  0  0  0  0  0  0  0  0  0  0  0
   22.5591   -1.1531   -9.6030 C   0  0  0  0  0  0  0  0  0  0  0  0
  1  2  1  6
  3  2  1  6
  4  3  1  1
  5  4  1  1
  5  6  2  0
  5  7  2  0
  5  8  1  0
  8  9  1  1
  9 10  1  1
 10 11  1  0
 11 12  2  0
 12 13  1  0
 13 14  1  0
 13 15  2  0
 15 16  1  0
 16 17  1  0
 17 18  3  0
 16 19  2  0
  9  3  1  0
 19 11  1  0
M  END
$$$$
