_rank7
     RDKit          3D

 19 20  0  0  0  0  0  0  0  0999 V2000
   26.6493    1.7463  -12.8679 C   0  0  0  0  0  0  0  0  0  0  0  0
   26.0758    1.6824  -11.6130 O   0  0  0  0  0  0  0  0  0  0  0  0
   26.3462    0.5392  -10.9237 C   0  0  1  0  0  0  0  0  0  0  0  0
   27.3690    0.7073   -9.8130 C   0  0  0  0  0  0  0  0  0  0  0  0
   27.2972   -0.9540   -9.1201 S   0  0  2  0  0  6  0  0  0  0  0  0
   27.2993   -0.9107   -7.6325 O   0  0  0  0  0  0  0  0  0  0  0  0
   28.3762   -1.8099   -9.6959 O   0  0  0  0  0  0  0  0  0  0  0  0
   25.6806   -1.4204   -9.7627 C   0  0  0  0  0  0  0  0  0  0  0  0
   25.1502   -0.0461  -10.2046 C   0  0  2  0  0  0  0  0  0  0  0  0
   24.0925   -0.2550  -11.0716 O   0  0  0  0  0  0  0  0  0  0  0  0
   22.7569   -0.3597  -10.7812 C   0  0  0  0  0  0  0  0  0  0  0  0
   21.9953    0.7212  -10.4097 C   0  0  0  0  0  0  0  0  0  0  0  0
   20.6433    0.6283  -10.1135 C   0  0  0  0  0  0  0  0  0  0  0  0
   19.9206    1.7330   -9.7474 F   0  0  0  0  0  0  0  0  0  0  0  0
   20.0044   -0.5866  -10.1848 C   0  0  0  0  0  0  0  0  0  0  0  0
   20.7418   -1.6948  -10.5557 C   0  0  0  0  0  0  0  0  0  0  0  0
   20.0901   -2.9572  -10.6348 C   0  0  0  0  0  0  0  0  0  0  0  0
   19.5708   -4.0066  -10.6970 N   0  0  0  0  0  0  0  0  0  0  0  0
   22.0828   -1.5817  -10.8458 C   0  0  0  0  0  0  0  0  0  0  0  0
  1  2  1  6
  3  2  1  1
  4  3  1  1
  5  4  1  6
  5  6  2  0
  5  7  2  0
  5  8  1  0
  8  9  1  1
  9 10  1  6
 10 11  1  0
 11 12  2  0
 12 13  1  0
 13 14  1  0
 13 15  2  0
 15 16  1  0
 16 17  1  0
 17 18  3  0
 16 19  2  0
  9  3  1  0
 19 11  1  0
M  END
$$$$
