_rank20
     RDKit          3D

 19 20  0  0  0  0  0  0  0  0999 V2000
   22.0774   -1.7728  -13.4690 C   0  0  0  0  0  0  0  0  0  0  0  0
   21.9409   -0.5021  -12.9450 O   0  0  0  0  0  0  0  0  0  0  0  0
   21.5102   -0.4648  -11.6533 C   0  0  1  0  0  0  0  0  0  0  0  0
   20.4245   -1.4767  -11.3281 C   0  0  0  0  0  0  0  0  0  0  0  0
   20.2840   -1.1691   -9.5587 S   0  0  2  0  0  6  0  0  0  0  0  0
   20.1702   -2.4466   -8.8039 O   0  0  0  0  0  0  0  0  0  0  0  0
   19.1767   -0.2077   -9.2795 O   0  0  0  0  0  0  0  0  0  0  0  0
   21.8941   -0.4005   -9.3125 C   0  0  0  0  0  0  0  0  0  0  0  0
   22.5854   -0.7743  -10.6345 C   0  0  2  0  0  0  0  0  0  0  0  0
   23.6829    0.0535  -10.7916 O   0  0  0  0  0  0  0  0  0  0  0  0
   25.0068   -0.2331  -10.5815 C   0  0  0  0  0  0  0  0  0  0  0  0
   25.7392   -1.0129  -11.4428 C   0  0  0  0  0  0  0  0  0  0  0  0
   27.0791   -1.3099  -11.2414 C   0  0  0  0  0  0  0  0  0  0  0  0
   27.7724   -2.0920  -12.1270 F   0  0  0  0  0  0  0  0  0  0  0  0
   27.7356   -0.8173  -10.1388 C   0  0  0  0  0  0  0  0  0  0  0  0
   27.0278   -0.0288   -9.2518 C   0  0  0  0  0  0  0  0  0  0  0  0
   27.6980    0.4881   -8.1081 C   0  0  0  0  0  0  0  0  0  0  0  0
   28.2663    0.9026   -7.1699 N   0  0  0  0  0  0  0  0  0  0  0  0
   25.6983    0.2544   -9.4697 C   0  0  0  0  0  0  0  0  0  0  0  0
  1  2  1  6
  3  2  1  6
  4  3  1  1
  5  4  1  6
  5  6  2  0
  5  7  2  0
  5  8  1  0
  8  9  1  1
  9 10  1  6
 10 11  1  0
 11 12  2  0
 12 13  1  0
 13 14  1  0
 13 15  2  0
 15 16  1  0
 16 17  1  0
 17 18  3  0
 16 19  2  0
  9  3  1  0
 19 11  1  0
M  END
$$$$
