_rank13
     RDKit          3D

 19 20  0  0  0  0  0  0  0  0999 V2000
   27.5504    1.5343  -13.0144 C   0  0  0  0  0  0  0  0  0  0  0  0
   26.5449    0.6483  -12.6799 O   0  0  0  0  0  0  0  0  0  0  0  0
   26.6155    0.1644  -11.4087 C   0  0  1  0  0  0  0  0  0  0  0  0
   27.4685    1.0000  -10.4694 C   0  0  0  0  0  0  0  0  0  0  0  0
   27.1599    0.0966   -8.9418 S   0  0  2  0  0  6  0  0  0  0  0  0
   26.9403    1.0322   -7.8054 O   0  0  0  0  0  0  0  0  0  0  0  0
   28.2417   -0.9020   -8.6949 O   0  0  0  0  0  0  0  0  0  0  0  0
   25.6272   -0.7095   -9.4363 C   0  0  0  0  0  0  0  0  0  0  0  0
   25.2815    0.1006  -10.6970 C   0  0  2  0  0  0  0  0  0  0  0  0
   24.3538   -0.6209  -11.4273 O   0  0  0  0  0  0  0  0  0  0  0  0
   22.9962   -0.6918  -11.2522 C   0  0  0  0  0  0  0  0  0  0  0  0
   22.1729   -1.3586  -12.1263 C   0  0  0  0  0  0  0  0  0  0  0  0
   20.7981   -1.4377  -11.9601 C   0  0  0  0  0  0  0  0  0  0  0  0
   20.0137   -2.1144  -12.8566 F   0  0  0  0  0  0  0  0  0  0  0  0
   20.1986   -0.8321  -10.8816 C   0  0  0  0  0  0  0  0  0  0  0  0
   20.9984   -0.1526   -9.9826 C   0  0  0  0  0  0  0  0  0  0  0  0
   20.3886    0.4764   -8.8614 C   0  0  0  0  0  0  0  0  0  0  0  0
   19.8950    0.9813   -7.9253 N   0  0  0  0  0  0  0  0  0  0  0  0
   22.3612   -0.0857  -10.1654 C   0  0  0  0  0  0  0  0  0  0  0  0
  1  2  1  6
  3  2  1  6
  4  3  1  1
  5  4  1  6
  5  6  2  0
  5  7  2  0
  5  8  1  0
  8  9  1  1
  9 10  1  6
 10 11  1  0
 11 12  2  0
 12 13  1  0
 13 14  1  0
 13 15  2  0
 15 16  1  0
 16 17  1  0
 17 18  3  0
 16 19  2  0
  9  3  1  0
 19 11  1  0
M  END
$$$$
