_rank9
     RDKit          3D

 19 20  0  0  0  0  0  0  0  0999 V2000
   26.8327    0.9005  -13.2454 C   0  0  0  0  0  0  0  0  0  0  0  0
   25.7584    0.6502  -12.4141 O   0  0  0  0  0  0  0  0  0  0  0  0
   26.0941    0.1905  -11.1767 C   0  0  1  0  0  0  0  0  0  0  0  0
   27.0287    1.1054  -10.4035 C   0  0  0  0  0  0  0  0  0  0  0  0
   27.0731    0.2000   -8.8468 S   0  0  2  0  0  6  0  0  0  0  0  0
   26.9827    1.1294   -7.6880 O   0  0  0  0  0  0  0  0  0  0  0  0
   28.2605   -0.7034   -8.7988 O   0  0  0  0  0  0  0  0  0  0  0  0
   25.5489   -0.7352   -9.0609 C   0  0  0  0  0  0  0  0  0  0  0  0
   24.9182    0.0272  -10.2383 C   0  0  2  0  0  0  0  0  0  0  0  0
   23.9383   -0.7773  -10.7923 O   0  0  0  0  0  0  0  0  0  0  0  0
   22.5767   -0.6667  -10.6794 C   0  0  0  0  0  0  0  0  0  0  0  0
   21.9741    0.0133   -9.6494 C   0  0  0  0  0  0  0  0  0  0  0  0
   20.5978    0.1324   -9.5241 C   0  0  0  0  0  0  0  0  0  0  0  0
   20.0382    0.8209   -8.4802 F   0  0  0  0  0  0  0  0  0  0  0  0
   19.7688   -0.4447  -10.4562 C   0  0  0  0  0  0  0  0  0  0  0  0
   20.3428   -1.1364  -11.5058 C   0  0  0  0  0  0  0  0  0  0  0  0
   19.4941   -1.7361  -12.4777 C   0  0  0  0  0  0  0  0  0  0  0  0
   18.8023   -2.2484  -13.2738 N   0  0  0  0  0  0  0  0  0  0  0  0
   21.7112   -1.2432  -11.6123 C   0  0  0  0  0  0  0  0  0  0  0  0
  1  2  1  6
  3  2  1  6
  4  3  1  1
  5  4  1  6
  5  6  2  0
  5  7  2  0
  5  8  1  0
  8  9  1  1
  9 10  1  6
 10 11  1  0
 11 12  2  0
 12 13  1  0
 13 14  1  0
 13 15  2  0
 15 16  1  0
 16 17  1  0
 17 18  3  0
 16 19  2  0
  9  3  1  0
 19 11  1  0
M  END
$$$$
