_rank4
     RDKit          3D

 19 20  0  0  0  0  0  0  0  0999 V2000
   25.5785    0.3705  -12.4734 C   0  0  0  0  0  0  0  0  0  0  0  0
   25.4932   -0.7155  -11.6241 O   0  0  0  0  0  0  0  0  0  0  0  0
   26.1746   -0.5742  -10.4532 C   0  0  1  0  0  0  0  0  0  0  0  0
   27.3577    0.3758  -10.5303 C   0  0  0  0  0  0  0  0  0  0  0  0
   27.8374    0.3579   -8.7941 S   0  0  2  0  0  6  0  0  0  0  0  0
   28.1723    1.7285   -8.3205 O   0  0  0  0  0  0  0  0  0  0  0  0
   28.9237   -0.6388   -8.5599 O   0  0  0  0  0  0  0  0  0  0  0  0
   26.2711   -0.2102   -8.1103 C   0  0  0  0  0  0  0  0  0  0  0  0
   25.3473   -0.0026   -9.3223 C   0  0  2  0  0  0  0  0  0  0  0  0
   24.1969   -0.7426   -9.1143 O   0  0  0  0  0  0  0  0  0  0  0  0
   22.9542   -0.5637   -9.6644 C   0  0  0  0  0  0  0  0  0  0  0  0
   22.2029    0.5639   -9.4399 C   0  0  0  0  0  0  0  0  0  0  0  0
   20.9445    0.7569   -9.9907 C   0  0  0  0  0  0  0  0  0  0  0  0
   20.2291    1.8982   -9.7409 F   0  0  0  0  0  0  0  0  0  0  0  0
   20.3936   -0.2048  -10.8036 C   0  0  0  0  0  0  0  0  0  0  0  0
   21.1233   -1.3520  -11.0502 C   0  0  0  0  0  0  0  0  0  0  0  0
   20.5635   -2.3533  -11.8919 C   0  0  0  0  0  0  0  0  0  0  0  0
   20.1208   -3.1839  -12.5912 N   0  0  0  0  0  0  0  0  0  0  0  0
   22.3708   -1.5246  -10.4939 C   0  0  0  0  0  0  0  0  0  0  0  0
  1  2  1  6
  3  2  1  6
  4  3  1  1
  5  4  1  6
  5  6  2  0
  5  7  2  0
  5  8  1  0
  8  9  1  1
  9 10  1  1
 10 11  1  0
 11 12  2  0
 12 13  1  0
 13 14  1  0
 13 15  2  0
 15 16  1  0
 16 17  1  0
 17 18  3  0
 16 19  2  0
  9  3  1  0
 19 11  1  0
M  END
$$$$
