_rank6
     RDKit          3D

 19 20  0  0  0  0  0  0  0  0999 V2000
   27.2391    0.1511  -13.1739 C   0  0  0  0  0  0  0  0  0  0  0  0
   26.6002    0.9320  -12.2306 O   0  0  0  0  0  0  0  0  0  0  0  0
   26.5559    0.3900  -10.9818 C   0  0  1  0  0  0  0  0  0  0  0  0
   27.5250    1.0178   -9.9944 C   0  0  0  0  0  0  0  0  0  0  0  0
   27.0271    0.1210   -8.5135 S   0  0  2  0  0  6  0  0  0  0  0  0
   26.9549    1.0320   -7.3389 O   0  0  0  0  0  0  0  0  0  0  0  0
   27.9066   -1.0657   -8.2980 O   0  0  0  0  0  0  0  0  0  0  0  0
   25.3854   -0.3740   -9.0643 C   0  0  0  0  0  0  0  0  0  0  0  0
   25.2174    0.5376  -10.2915 C   0  0  2  0  0  0  0  0  0  0  0  0
   24.1910    0.0267  -11.0659 O   0  0  0  0  0  0  0  0  0  0  0  0
   22.8576   -0.0687  -10.7630 C   0  0  0  0  0  0  0  0  0  0  0  0
   22.1294    0.9964  -10.2921 C   0  0  0  0  0  0  0  0  0  0  0  0
   20.7800    0.9127   -9.9822 C   0  0  0  0  0  0  0  0  0  0  0  0
   20.0913    2.0011   -9.5154 F   0  0  0  0  0  0  0  0  0  0  0  0
   20.1090   -0.2762  -10.1418 C   0  0  0  0  0  0  0  0  0  0  0  0
   20.8122   -1.3680  -10.6139 C   0  0  0  0  0  0  0  0  0  0  0  0
   20.1271   -2.6033  -10.7849 C   0  0  0  0  0  0  0  0  0  0  0  0
   19.5449   -3.6116  -10.9238 N   0  0  0  0  0  0  0  0  0  0  0  0
   22.1513   -1.2644  -10.9159 C   0  0  0  0  0  0  0  0  0  0  0  0
  1  2  1  6
  3  2  1  6
  4  3  1  1
  5  4  1  6
  5  6  2  0
  5  7  2  0
  5  8  1  0
  8  9  1  1
  9 10  1  6
 10 11  1  0
 11 12  2  0
 12 13  1  0
 13 14  1  0
 13 15  2  0
 15 16  1  0
 16 17  1  0
 17 18  3  0
 16 19  2  0
  9  3  1  0
 19 11  1  0
M  END
$$$$
