_rank17
     RDKit          3D

 19 20  0  0  0  0  0  0  0  0999 V2000
   26.1941    2.5533  -11.8476 C   0  0  0  0  0  0  0  0  0  0  0  0
   26.5523    1.2786  -12.2408 O   0  0  0  0  0  0  0  0  0  0  0  0
   26.7737    0.4102  -11.2151 C   0  0  1  0  0  0  0  0  0  0  0  0
   27.6186    0.9786  -10.0876 C   0  0  0  0  0  0  0  0  0  0  0  0
   27.5249   -0.4122   -8.9466 S   0  0  2  0  0  6  0  0  0  0  0  0
   27.3125    0.0581   -7.5507 O   0  0  0  0  0  0  0  0  0  0  0  0
   28.7133   -1.3016   -9.1046 O   0  0  0  0  0  0  0  0  0  0  0  0
   26.0398   -1.1811   -9.6152 C   0  0  0  0  0  0  0  0  0  0  0  0
   25.5155   -0.0435  -10.5073 C   0  0  2  0  0  0  0  0  0  0  0  0
   24.6031   -0.5836  -11.3962 O   0  0  0  0  0  0  0  0  0  0  0  0
   23.2968   -0.9339  -11.1732 C   0  0  0  0  0  0  0  0  0  0  0  0
   22.5186   -1.5326  -12.1336 C   0  0  0  0  0  0  0  0  0  0  0  0
   21.1960   -1.8920  -11.9202 C   0  0  0  0  0  0  0  0  0  0  0  0
   20.4557   -2.4882  -12.9067 F   0  0  0  0  0  0  0  0  0  0  0  0
   20.6050   -1.6524  -10.7026 C   0  0  0  0  0  0  0  0  0  0  0  0
   21.3602   -1.0513   -9.7138 C   0  0  0  0  0  0  0  0  0  0  0  0
   20.7591   -0.8004   -8.4488 C   0  0  0  0  0  0  0  0  0  0  0  0
   20.2455   -0.5936   -7.4151 N   0  0  0  0  0  0  0  0  0  0  0  0
   22.6716   -0.7021   -9.9455 C   0  0  0  0  0  0  0  0  0  0  0  0
  1  2  1  6
  3  2  1  6
  4  3  1  1
  5  4  1  6
  5  6  2  0
  5  7  2  0
  5  8  1  0
  8  9  1  1
  9 10  1  6
 10 11  1  0
 11 12  2  0
 12 13  1  0
 13 14  1  0
 13 15  2  0
 15 16  1  0
 16 17  1  0
 17 18  3  0
 16 19  2  0
  9  3  1  0
 19 11  1  0
M  END
$$$$
