_rank18
     RDKit          3D

 19 20  0  0  0  0  0  0  0  0999 V2000
   25.9822    3.2058  -10.4004 C   0  0  0  0  0  0  0  0  0  0  0  0
   26.4890    2.1969  -11.1962 O   0  0  0  0  0  0  0  0  0  0  0  0
   26.7857    1.0456  -10.5316 C   0  0  1  0  0  0  0  0  0  0  0  0
   27.6114    1.2470   -9.2723 C   0  0  0  0  0  0  0  0  0  0  0  0
   27.6303   -0.4546   -8.6815 S   0  0  2  0  0  6  0  0  0  0  0  0
   27.4125   -0.5096   -7.2104 O   0  0  0  0  0  0  0  0  0  0  0  0
   28.8718   -1.1520   -9.1297 O   0  0  0  0  0  0  0  0  0  0  0  0
   26.1875   -1.0456   -9.5830 C   0  0  0  0  0  0  0  0  0  0  0  0
   25.5731    0.2912  -10.0311 C   0  0  2  0  0  0  0  0  0  0  0  0
   24.6825    0.0295  -11.0571 O   0  0  0  0  0  0  0  0  0  0  0  0
   23.4511   -0.5686  -10.9884 C   0  0  0  0  0  0  0  0  0  0  0  0
   22.8076   -0.7989   -9.7971 C   0  0  0  0  0  0  0  0  0  0  0  0
   21.5616   -1.4029   -9.7144 C   0  0  0  0  0  0  0  0  0  0  0  0
   20.9550   -1.6131   -8.5042 F   0  0  0  0  0  0  0  0  0  0  0  0
   20.9124   -1.8021  -10.8581 C   0  0  0  0  0  0  0  0  0  0  0  0
   21.5322   -1.5851  -12.0740 C   0  0  0  0  0  0  0  0  0  0  0  0
   20.8682   -1.9925  -13.2647 C   0  0  0  0  0  0  0  0  0  0  0  0
   20.3197   -2.3090  -14.2515 N   0  0  0  0  0  0  0  0  0  0  0  0
   22.7691   -0.9839  -12.1349 C   0  0  0  0  0  0  0  0  0  0  0  0
  1  2  1  6
  3  2  1  1
  4  3  1  1
  5  4  1  6
  5  6  2  0
  5  7  2  0
  5  8  1  0
  8  9  1  1
  9 10  1  6
 10 11  1  0
 11 12  2  0
 12 13  1  0
 13 14  1  0
 13 15  2  0
 15 16  1  0
 16 17  1  0
 17 18  3  0
 16 19  2  0
  9  3  1  0
 19 11  1  0
M  END
$$$$
