_rank12
     RDKit          3D

 19 20  0  0  0  0  0  0  0  0999 V2000
   26.3312    0.8517   -7.6366 C   0  0  0  0  0  0  0  0  0  0  0  0
   26.0623    1.3594   -8.8927 O   0  0  0  0  0  0  0  0  0  0  0  0
   26.4666    0.5658   -9.9233 C   0  0  1  0  0  0  0  0  0  0  0  0
   27.6582   -0.3191   -9.5992 C   0  0  0  0  0  0  0  0  0  0  0  0
   27.7357   -1.2499  -11.1395 S   0  0  2  0  0  6  0  0  0  0  0  0
   27.9871   -2.6931  -10.8771 O   0  0  0  0  0  0  0  0  0  0  0  0
   28.7186   -0.6316  -12.0775 O   0  0  0  0  0  0  0  0  0  0  0  0
   26.0433   -0.9654  -11.6859 C   0  0  0  0  0  0  0  0  0  0  0  0
   25.4200   -0.4231  -10.3888 C   0  0  2  0  0  0  0  0  0  0  0  0
   24.2356    0.2124  -10.7170 O   0  0  0  0  0  0  0  0  0  0  0  0
   22.9515   -0.2448  -10.5721 C   0  0  0  0  0  0  0  0  0  0  0  0
   22.6478   -1.5823  -10.4999 C   0  0  0  0  0  0  0  0  0  0  0  0
   21.3528   -2.0574  -10.3532 C   0  0  0  0  0  0  0  0  0  0  0  0
   21.0945   -3.4010  -10.2847 F   0  0  0  0  0  0  0  0  0  0  0  0
   20.3008   -1.1764  -10.2732 C   0  0  0  0  0  0  0  0  0  0  0  0
   20.5717    0.1769  -10.3424 C   0  0  0  0  0  0  0  0  0  0  0  0
   19.4905    1.0979  -10.2587 C   0  0  0  0  0  0  0  0  0  0  0  0
   18.5963    1.8513  -10.1704 N   0  0  0  0  0  0  0  0  0  0  0  0
   21.8641    0.6283  -10.4882 C   0  0  0  0  0  0  0  0  0  0  0  0
  1  2  1  6
  3  2  1  1
  4  3  1  1
  5  4  1  1
  5  6  2  0
  5  7  2  0
  5  8  1  0
  8  9  1  1
  9 10  1  6
 10 11  1  0
 11 12  2  0
 12 13  1  0
 13 14  1  0
 13 15  2  0
 15 16  1  0
 16 17  1  0
 17 18  3  0
 16 19  2  0
  9  3  1  0
 19 11  1  0
M  END
$$$$
