_rank14
     RDKit          3D

 19 20  0  0  0  0  0  0  0  0999 V2000
   27.0744   -0.8978  -12.3518 C   0  0  0  0  0  0  0  0  0  0  0  0
   27.1048   -1.6777  -11.2122 O   0  0  0  0  0  0  0  0  0  0  0  0
   27.0041   -0.9812  -10.0459 C   0  0  1  0  0  0  0  0  0  0  0  0
   27.9383    0.2129   -9.9495 C   0  0  0  0  0  0  0  0  0  0  0  0
   27.3713    0.8784   -8.3746 S   0  0  2  0  0  6  0  0  0  0  0  0
   27.2604    2.3614   -8.4325 O   0  0  0  0  0  0  0  0  0  0  0  0
   28.2292    0.3852   -7.2570 O   0  0  0  0  0  0  0  0  0  0  0  0
   25.7485    0.0977   -8.3459 C   0  0  0  0  0  0  0  0  0  0  0  0
   25.6400   -0.3713   -9.8065 C   0  0  2  0  0  0  0  0  0  0  0  0
   24.6410   -1.3260   -9.8756 O   0  0  0  0  0  0  0  0  0  0  0  0
   23.3727   -1.2012  -10.3803 C   0  0  0  0  0  0  0  0  0  0  0  0
   23.1283   -0.8175  -11.6762 C   0  0  0  0  0  0  0  0  0  0  0  0
   21.8499   -0.6877  -12.1987 C   0  0  0  0  0  0  0  0  0  0  0  0
   21.6512   -0.3026  -13.4983 F   0  0  0  0  0  0  0  0  0  0  0  0
   20.7540   -0.9474  -11.4107 C   0  0  0  0  0  0  0  0  0  0  0  0
   20.9648   -1.3359  -10.1014 C   0  0  0  0  0  0  0  0  0  0  0  0
   19.8376   -1.6092   -9.2772 C   0  0  0  0  0  0  0  0  0  0  0  0
   18.9138   -1.8540   -8.5979 N   0  0  0  0  0  0  0  0  0  0  0  0
   22.2416   -1.4589   -9.6017 C   0  0  0  0  0  0  0  0  0  0  0  0
  1  2  1  6
  3  2  1  6
  4  3  1  1
  5  4  1  6
  5  6  2  0
  5  7  2  0
  5  8  1  0
  8  9  1  1
  9 10  1  1
 10 11  1  0
 11 12  2  0
 12 13  1  0
 13 14  1  0
 13 15  2  0
 15 16  1  0
 16 17  1  0
 17 18  3  0
 16 19  2  0
  9  3  1  0
 19 11  1  0
M  END
$$$$
