_rank11
     RDKit          3D

 19 20  0  0  0  0  0  0  0  0999 V2000
   26.3663    0.6039   -7.7238 C   0  0  0  0  0  0  0  0  0  0  0  0
   25.7655    1.1996   -8.8157 O   0  0  0  0  0  0  0  0  0  0  0  0
   26.2141    0.7548  -10.0224 C   0  0  1  0  0  0  0  0  0  0  0  0
   27.4808   -0.0807   -9.9478 C   0  0  0  0  0  0  0  0  0  0  0  0
   27.6054   -0.5456  -11.6837 S   0  0  2  0  0  6  0  0  0  0  0  0
   27.9802   -1.9788  -11.8251 O   0  0  0  0  0  0  0  0  0  0  0  0
   28.5158    0.3863  -12.4125 O   0  0  0  0  0  0  0  0  0  0  0  0
   25.8852   -0.2672  -12.1385 C   0  0  0  0  0  0  0  0  0  0  0  0
   25.2441   -0.1545  -10.7451 C   0  0  2  0  0  0  0  0  0  0  0  0
   24.0052    0.4438  -10.8919 O   0  0  0  0  0  0  0  0  0  0  0  0
   22.7717   -0.0517  -10.5576 C   0  0  0  0  0  0  0  0  0  0  0  0
   22.5899   -1.3351  -10.1033 C   0  0  0  0  0  0  0  0  0  0  0  0
   21.3472   -1.8481   -9.7618 C   0  0  0  0  0  0  0  0  0  0  0  0
   21.2111   -3.1349   -9.3119 F   0  0  0  0  0  0  0  0  0  0  0  0
   20.2242   -1.0631   -9.8710 C   0  0  0  0  0  0  0  0  0  0  0  0
   20.3720    0.2337  -10.3250 C   0  0  0  0  0  0  0  0  0  0  0  0
   19.2165    1.0559  -10.4401 C   0  0  0  0  0  0  0  0  0  0  0  0
   18.2758    1.7499  -10.5323 N   0  0  0  0  0  0  0  0  0  0  0  0
   21.6143    0.7241  -10.6590 C   0  0  0  0  0  0  0  0  0  0  0  0
  1  2  1  6
  3  2  1  1
  4  3  1  1
  5  4  1  1
  5  6  2  0
  5  7  2  0
  5  8  1  0
  8  9  1  1
  9 10  1  6
 10 11  1  0
 11 12  2  0
 12 13  1  0
 13 14  1  0
 13 15  2  0
 15 16  1  0
 16 17  1  0
 17 18  3  0
 16 19  2  0
  9  3  1  0
 19 11  1  0
M  END
$$$$
