_rank20
     RDKit          3D

 27 29  0  0  0  0  0  0  0  0999 V2000
   17.5077    1.5771   -9.3197 N   0  0  0  0  0  0  0  0  0  0  0  0
   18.3357    0.8650   -9.7139 C   0  0  0  0  0  0  0  0  0  0  0  0
   19.3681    0.0098  -10.1983 C   0  0  0  0  0  0  0  0  0  0  0  0
   19.1987   -1.3490  -10.2811 C   0  0  0  0  0  0  0  0  0  0  0  0
   20.2142   -2.1354  -10.7517 C   0  0  0  0  0  0  0  0  0  0  0  0
   20.0590   -3.4926  -10.8396 F   0  0  0  0  0  0  0  0  0  0  0  0
   21.4044   -1.5823  -11.1438 C   0  0  0  0  0  0  0  0  0  0  0  0
   21.5930   -0.1927  -11.0651 C   0  0  0  0  0  0  0  0  0  0  0  0
   22.8131    0.2631  -11.4772 O   0  0  0  0  0  0  0  0  0  0  0  0
   24.0464    0.0384  -10.9367 C   0  0  0  0  0  0  0  0  0  0  0  0
   24.1214   -0.5813   -9.6926 C   0  0  0  0  0  0  0  0  0  0  0  0
   25.3497   -0.8217   -9.1228 C   0  0  0  0  0  0  0  0  0  0  0  0
   26.4960   -0.4509   -9.7810 C   0  0  0  0  0  0  0  0  0  0  0  0
   28.0331   -0.7728   -9.0268 S   0  0  2  0  0  6  0  0  0  0  0  0
   29.0420    0.2880   -9.3652 O   0  0  0  0  0  0  0  0  0  0  0  0
   28.5237   -2.1084   -9.5139 O   0  0  0  0  0  0  0  0  0  0  0  0
   27.8341   -0.7983   -7.2819 C   0  0  0  0  0  0  0  0  0  0  0  0
   27.3079   -2.0027   -6.8546 F   0  0  0  0  0  0  0  0  0  0  0  0
   26.4084    0.1648  -11.0175 C   0  0  0  0  0  0  0  0  0  0  0  0
   25.2016    0.4073  -11.5889 C   0  0  0  0  0  0  0  0  0  0  0  0
   25.3861    1.0935  -12.9165 C   0  0  0  0  0  0  0  0  0  0  0  0
   26.8281    1.4572  -12.9335 C   0  0  2  0  0  0  0  0  0  0  0  0
   26.9280    2.8219  -12.7041 F   0  0  0  0  0  0  0  0  0  0  0  0
   27.3384    1.2134  -14.2102 F   0  0  0  0  0  0  0  0  0  0  0  0
   27.5056    0.6381  -11.8948 C   0  0  1  0  0  0  0  0  0  0  0  0
   28.3934    1.4577  -11.2010 O   0  0  0  0  0  0  0  0  0  0  0  0
   20.5609    0.5740  -10.5899 C   0  0  0  0  0  0  0  0  0  0  0  0
  1  2  3  0
  2  3  1  0
  3  4  2  0
  4  5  1  0
  5  6  1  0
  5  7  2  0
  7  8  1  0
  8  9  1  0
  9 10  1  0
 10 11  2  0
 11 12  1  0
 12 13  2  0
 14 13  1  6
 14 15  2  0
 14 16  2  0
 14 17  1  0
 17 18  1  1
 13 19  1  0
 19 20  2  0
 21 20  1  6
 21 22  1  0
 22 23  1  1
 22 24  1  0
 22 25  1  0
 25 26  1  1
  8 27  2  0
 27  3  1  0
 20 10  1  0
 25 19  1  0
M  END
$$$$
