_rank15
     RDKit          3D

 27 29  0  0  0  0  0  0  0  0999 V2000
   17.7969   -3.9447  -11.2264 N   0  0  0  0  0  0  0  0  0  0  0  0
   18.4463   -3.0024  -11.0302 C   0  0  0  0  0  0  0  0  0  0  0  0
   19.2381   -1.8374  -10.8123 C   0  0  0  0  0  0  0  0  0  0  0  0
   18.7713   -0.7754  -10.0801 C   0  0  0  0  0  0  0  0  0  0  0  0
   19.5625    0.3248   -9.8938 C   0  0  0  0  0  0  0  0  0  0  0  0
   19.1096    1.3918   -9.1655 F   0  0  0  0  0  0  0  0  0  0  0  0
   20.8214    0.3814  -10.4307 C   0  0  0  0  0  0  0  0  0  0  0  0
   21.3135   -0.6981  -11.1827 C   0  0  0  0  0  0  0  0  0  0  0  0
   22.5778   -0.5469  -11.6775 O   0  0  0  0  0  0  0  0  0  0  0  0
   23.7589   -0.4196  -11.0048 C   0  0  0  0  0  0  0  0  0  0  0  0
   23.7606   -0.6156   -9.6267 C   0  0  0  0  0  0  0  0  0  0  0  0
   24.9351   -0.4950   -8.9217 C   0  0  0  0  0  0  0  0  0  0  0  0
   26.1002   -0.1823   -9.5773 C   0  0  0  0  0  0  0  0  0  0  0  0
   27.5676   -0.0385   -8.6493 S   0  0  2  0  0  6  0  0  0  0  0  0
   27.2769    0.0808   -7.1800 O   0  0  0  0  0  0  0  0  0  0  0  0
   28.3010    1.1876   -9.1190 O   0  0  0  0  0  0  0  0  0  0  0  0
   28.5567   -1.4690   -8.8945 C   0  0  0  0  0  0  0  0  0  0  0  0
   28.0405   -2.5578   -8.2176 F   0  0  0  0  0  0  0  0  0  0  0  0
   26.0855    0.0105  -10.9478 C   0  0  0  0  0  0  0  0  0  0  0  0
   24.9321   -0.1056  -11.6534 C   0  0  0  0  0  0  0  0  0  0  0  0
   25.1887    0.1647  -13.1124 C   0  0  0  0  0  0  0  0  0  0  0  0
   26.5732    0.7071  -13.1374 C   0  0  2  0  0  0  0  0  0  0  0  0
   26.4927    2.0767  -13.3436 F   0  0  0  0  0  0  0  0  0  0  0  0
   27.2498    0.1627  -14.2309 F   0  0  0  0  0  0  0  0  0  0  0  0
   27.2155    0.3465  -11.8466 C   0  0  1  0  0  0  0  0  0  0  0  0
   27.9209    1.4552  -11.3836 O   0  0  0  0  0  0  0  0  0  0  0  0
   20.5018   -1.7889  -11.3557 C   0  0  0  0  0  0  0  0  0  0  0  0
  1  2  3  0
  2  3  1  0
  3  4  2  0
  4  5  1  0
  5  6  1  0
  5  7  2  0
  7  8  1  0
  8  9  1  0
  9 10  1  0
 10 11  2  0
 11 12  1  0
 12 13  2  0
 14 13  1  6
 14 15  2  0
 14 16  2  0
 14 17  1  0
 17 18  1  1
 13 19  1  0
 19 20  2  0
 21 20  1  6
 21 22  1  0
 22 23  1  6
 22 24  1  0
 22 25  1  0
 25 26  1  1
  8 27  2  0
 27  3  1  0
 20 10  1  0
 25 19  1  0
M  END
$$$$
