_rank9
     RDKit          3D

 27 29  0  0  0  0  0  0  0  0999 V2000
   18.0774   -4.1440  -10.3424 N   0  0  0  0  0  0  0  0  0  0  0  0
   18.5993   -3.1071  -10.3214 C   0  0  0  0  0  0  0  0  0  0  0  0
   19.2260   -1.8269  -10.3147 C   0  0  0  0  0  0  0  0  0  0  0  0
   18.6004   -0.7209   -9.7977 C   0  0  0  0  0  0  0  0  0  0  0  0
   19.2360    0.4903   -9.8101 C   0  0  0  0  0  0  0  0  0  0  0  0
   18.6235    1.6022   -9.2977 F   0  0  0  0  0  0  0  0  0  0  0  0
   20.4953    0.6153  -10.3342 C   0  0  0  0  0  0  0  0  0  0  0  0
   21.1490   -0.5079  -10.8671 C   0  0  0  0  0  0  0  0  0  0  0  0
   22.4000   -0.2824  -11.3673 O   0  0  0  0  0  0  0  0  0  0  0  0
   23.6139   -0.4525  -10.7662 C   0  0  0  0  0  0  0  0  0  0  0  0
   23.6481   -0.9934   -9.4842 C   0  0  0  0  0  0  0  0  0  0  0  0
   24.8560   -1.1775   -8.8531 C   0  0  0  0  0  0  0  0  0  0  0  0
   26.0222   -0.8282   -9.4877 C   0  0  0  0  0  0  0  0  0  0  0  0
   27.5324   -1.0770   -8.6556 S   0  0  2  0  0  6  0  0  0  0  0  0
   28.5095   -1.8352   -9.5089 O   0  0  0  0  0  0  0  0  0  0  0  0
   27.2525   -1.8538   -7.3986 O   0  0  0  0  0  0  0  0  0  0  0  0
   28.2461    0.4788   -8.2619 C   0  0  0  0  0  0  0  0  0  0  0  0
   27.5220    1.1289   -7.2805 F   0  0  0  0  0  0  0  0  0  0  0  0
   25.9751   -0.2910  -10.7624 C   0  0  0  0  0  0  0  0  0  0  0  0
   24.7887   -0.1045  -11.3944 C   0  0  0  0  0  0  0  0  0  0  0  0
   25.0162    0.5022  -12.7537 C   0  0  0  0  0  0  0  0  0  0  0  0
   26.4522    0.8887  -12.7368 C   0  0  2  0  0  0  0  0  0  0  0  0
   26.5229    2.2664  -12.5886 F   0  0  0  0  0  0  0  0  0  0  0  0
   27.0167    0.5759  -13.9751 F   0  0  0  0  0  0  0  0  0  0  0  0
   27.0995    0.1465  -11.6238 C   0  0  1  0  0  0  0  0  0  0  0  0
   27.9467    1.0220  -10.9479 O   0  0  0  0  0  0  0  0  0  0  0  0
   20.4914   -1.7103  -10.8436 C   0  0  0  0  0  0  0  0  0  0  0  0
  1  2  3  0
  2  3  1  0
  3  4  2  0
  4  5  1  0
  5  6  1  0
  5  7  2  0
  7  8  1  0
  8  9  1  0
  9 10  1  0
 10 11  2  0
 11 12  1  0
 12 13  2  0
 14 13  1  6
 14 15  2  0
 14 16  2  0
 14 17  1  0
 17 18  1  1
 13 19  1  0
 19 20  2  0
 21 20  1  6
 21 22  1  0
 22 23  1  1
 22 24  1  0
 22 25  1  0
 25 26  1  1
  8 27  2  0
 27  3  1  0
 20 10  1  0
 25 19  1  0
M  END
$$$$
