_rank16
     RDKit          3D

 27 29  0  0  0  0  0  0  0  0999 V2000
   17.9378   -3.8683  -10.8421 N   0  0  0  0  0  0  0  0  0  0  0  0
   18.4967   -2.8539  -10.7606 C   0  0  0  0  0  0  0  0  0  0  0  0
   19.1855   -1.6083  -10.6853 C   0  0  0  0  0  0  0  0  0  0  0  0
   18.6156   -0.5036  -10.1050 C   0  0  0  0  0  0  0  0  0  0  0  0
   19.3099    0.6739  -10.0525 C   0  0  0  0  0  0  0  0  0  0  0  0
   18.7534    1.7841   -9.4766 F   0  0  0  0  0  0  0  0  0  0  0  0
   20.5731    0.7661  -10.5739 C   0  0  0  0  0  0  0  0  0  0  0  0
   21.1702   -0.3562  -11.1712 C   0  0  0  0  0  0  0  0  0  0  0  0
   22.4302   -0.1646  -11.6631 O   0  0  0  0  0  0  0  0  0  0  0  0
   23.6251   -0.1711  -11.0029 C   0  0  0  0  0  0  0  0  0  0  0  0
   23.6269   -0.4506   -9.6394 C   0  0  0  0  0  0  0  0  0  0  0  0
   24.8152   -0.4652   -8.9473 C   0  0  0  0  0  0  0  0  0  0  0  0
   25.9938   -0.2048   -9.6015 C   0  0  0  0  0  0  0  0  0  0  0  0
   27.4783   -0.2329   -8.6903 S   0  0  2  0  0  6  0  0  0  0  0  0
   27.2661    0.2477   -7.2826 O   0  0  0  0  0  0  0  0  0  0  0  0
   28.4706    0.6599   -9.3833 O   0  0  0  0  0  0  0  0  0  0  0  0
   28.0887   -1.8782   -8.6179 C   0  0  0  0  0  0  0  0  0  0  0  0
   29.0250   -2.0220   -7.6115 F   0  0  0  0  0  0  0  0  0  0  0  0
   25.9789    0.0720  -10.9576 C   0  0  0  0  0  0  0  0  0  0  0  0
   24.8121    0.0895  -11.6503 C   0  0  0  0  0  0  0  0  0  0  0  0
   25.0726    0.4276  -13.0944 C   0  0  0  0  0  0  0  0  0  0  0  0
   26.4952    0.8609  -13.1089 C   0  0  2  0  0  0  0  0  0  0  0  0
   26.5205    2.2428  -13.2312 F   0  0  0  0  0  0  0  0  0  0  0  0
   27.1144    0.3334  -14.2439 F   0  0  0  0  0  0  0  0  0  0  0  0
   27.1216    0.3731  -11.8526 C   0  0  1  0  0  0  0  0  0  0  0  0
   27.9173    1.3931  -11.3352 O   0  0  0  0  0  0  0  0  0  0  0  0
   20.4544   -1.5245  -11.2119 C   0  0  0  0  0  0  0  0  0  0  0  0
  1  2  3  0
  2  3  1  0
  3  4  2  0
  4  5  1  0
  5  6  1  0
  5  7  2  0
  7  8  1  0
  8  9  1  0
  9 10  1  0
 10 11  2  0
 11 12  1  0
 12 13  2  0
 14 13  1  6
 14 15  2  0
 14 16  2  0
 14 17  1  0
 17 18  1  1
 13 19  1  0
 19 20  2  0
 21 20  1  6
 21 22  1  0
 22 23  1  6
 22 24  1  0
 22 25  1  0
 25 26  1  1
  8 27  2  0
 27  3  1  0
 20 10  1  0
 25 19  1  0
M  END
$$$$
