_rank13
     RDKit          3D

 27 29  0  0  0  0  0  0  0  0999 V2000
   17.9414   -4.2252  -10.8942 N   0  0  0  0  0  0  0  0  0  0  0  0
   18.4482   -3.1838  -10.8108 C   0  0  0  0  0  0  0  0  0  0  0  0
   19.0806   -1.9125  -10.6870 C   0  0  0  0  0  0  0  0  0  0  0  0
   18.4689   -0.8621  -10.0511 C   0  0  0  0  0  0  0  0  0  0  0  0
   19.1097    0.3425   -9.9532 C   0  0  0  0  0  0  0  0  0  0  0  0
   18.5110    1.3992   -9.3217 F   0  0  0  0  0  0  0  0  0  0  0  0
   20.3605    0.5157  -10.4839 C   0  0  0  0  0  0  0  0  0  0  0  0
   21.0000   -0.5503  -11.1378 C   0  0  0  0  0  0  0  0  0  0  0  0
   22.2434   -0.2793  -11.6344 O   0  0  0  0  0  0  0  0  0  0  0  0
   23.4608   -0.4037  -11.0293 C   0  0  0  0  0  0  0  0  0  0  0  0
   23.5012   -0.8204   -9.7019 C   0  0  0  0  0  0  0  0  0  0  0  0
   24.7128   -0.9557   -9.0657 C   0  0  0  0  0  0  0  0  0  0  0  0
   25.8767   -0.6802   -9.7398 C   0  0  0  0  0  0  0  0  0  0  0  0
   27.3917   -0.8638   -8.8995 S   0  0  2  0  0  6  0  0  0  0  0  0
   28.4789   -1.3297   -9.8262 O   0  0  0  0  0  0  0  0  0  0  0  0
   27.1992   -1.8729   -7.8011 O   0  0  0  0  0  0  0  0  0  0  0  0
   27.8771    0.6834   -8.2247 C   0  0  0  0  0  0  0  0  0  0  0  0
   28.7321    0.5166   -7.1517 F   0  0  0  0  0  0  0  0  0  0  0  0
   25.8234   -0.2663  -11.0594 C   0  0  0  0  0  0  0  0  0  0  0  0
   24.6333   -0.1289  -11.6970 C   0  0  0  0  0  0  0  0  0  0  0  0
   24.8545    0.3432  -13.1097 C   0  0  0  0  0  0  0  0  0  0  0  0
   26.2941    0.7151  -13.1409 C   0  0  2  0  0  0  0  0  0  0  0  0
   26.3789    2.0999  -13.1252 F   0  0  0  0  0  0  0  0  0  0  0  0
   26.8449    0.2801  -14.3482 F   0  0  0  0  0  0  0  0  0  0  0  0
   26.9443    0.0758  -11.9673 C   0  0  1  0  0  0  0  0  0  0  0  0
   27.8054    1.0031  -11.3846 O   0  0  0  0  0  0  0  0  0  0  0  0
   20.3375   -1.7472  -11.2233 C   0  0  0  0  0  0  0  0  0  0  0  0
  1  2  3  0
  2  3  1  0
  3  4  2  0
  4  5  1  0
  5  6  1  0
  5  7  2  0
  7  8  1  0
  8  9  1  0
  9 10  1  0
 10 11  2  0
 11 12  1  0
 12 13  2  0
 14 13  1  6
 14 15  2  0
 14 16  2  0
 14 17  1  0
 17 18  1  1
 13 19  1  0
 19 20  2  0
 21 20  1  6
 21 22  1  0
 22 23  1  1
 22 24  1  0
 22 25  1  0
 25 26  1  1
  8 27  2  0
 27  3  1  0
 20 10  1  0
 25 19  1  0
M  END
$$$$
