_rank17
     RDKit          3D

 27 29  0  0  0  0  0  0  0  0999 V2000
   18.5852   -4.2483  -10.8239 N   0  0  0  0  0  0  0  0  0  0  0  0
   18.9469   -3.1478  -10.7439 C   0  0  0  0  0  0  0  0  0  0  0  0
   19.3806   -1.7954  -10.6231 C   0  0  0  0  0  0  0  0  0  0  0  0
   18.5818   -0.8295  -10.0658 C   0  0  0  0  0  0  0  0  0  0  0  0
   19.0349    0.4574   -9.9681 C   0  0  0  0  0  0  0  0  0  0  0  0
   18.2484    1.4315   -9.4144 F   0  0  0  0  0  0  0  0  0  0  0  0
   20.2821    0.7972  -10.4212 C   0  0  0  0  0  0  0  0  0  0  0  0
   21.1119   -0.1806  -10.9941 C   0  0  0  0  0  0  0  0  0  0  0  0
   22.3353    0.2556  -11.4172 O   0  0  0  0  0  0  0  0  0  0  0  0
   23.5578    0.1014  -10.8293 C   0  0  0  0  0  0  0  0  0  0  0  0
   23.6058   -0.2457   -9.4822 C   0  0  0  0  0  0  0  0  0  0  0  0
   24.8225   -0.4090   -8.8625 C   0  0  0  0  0  0  0  0  0  0  0  0
   25.9839   -0.2297   -9.5723 C   0  0  0  0  0  0  0  0  0  0  0  0
   27.5056   -0.4459   -8.7520 S   0  0  2  0  0  6  0  0  0  0  0  0
   27.3334   -0.4091   -7.2598 O   0  0  0  0  0  0  0  0  0  0  0  0
   28.4300    0.6605   -9.1800 O   0  0  0  0  0  0  0  0  0  0  0  0
   28.1857   -2.0067   -9.1835 C   0  0  0  0  0  0  0  0  0  0  0  0
   27.7946   -2.9880   -8.2924 F   0  0  0  0  0  0  0  0  0  0  0  0
   25.9231    0.1155  -10.9113 C   0  0  0  0  0  0  0  0  0  0  0  0
   24.7279    0.2797  -11.5328 C   0  0  0  0  0  0  0  0  0  0  0  0
   24.9420    0.6641  -12.9729 C   0  0  0  0  0  0  0  0  0  0  0  0
   26.3975    0.9595  -13.0514 C   0  0  2  0  0  0  0  0  0  0  0  0
   26.5520    2.3369  -13.1123 F   0  0  0  0  0  0  0  0  0  0  0  0
   26.8995    0.4333  -14.2434 F   0  0  0  0  0  0  0  0  0  0  0  0
   27.0398    0.3509  -11.8573 C   0  0  1  0  0  0  0  0  0  0  0  0
   27.9588    1.2625  -11.3420 O   0  0  0  0  0  0  0  0  0  0  0  0
   20.6352   -1.4628  -11.0812 C   0  0  0  0  0  0  0  0  0  0  0  0
  1  2  3  0
  2  3  1  0
  3  4  2  0
  4  5  1  0
  5  6  1  0
  5  7  2  0
  7  8  1  0
  8  9  1  0
  9 10  1  0
 10 11  2  0
 11 12  1  0
 12 13  2  0
 14 13  1  6
 14 15  2  0
 14 16  2  0
 14 17  1  0
 17 18  1  1
 13 19  1  0
 19 20  2  0
 21 20  1  6
 21 22  1  0
 22 23  1  6
 22 24  1  0
 22 25  1  0
 25 26  1  1
  8 27  2  0
 27  3  1  0
 20 10  1  0
 25 19  1  0
M  END
$$$$
