_rank2
     RDKit          3D

 27 29  0  0  0  0  0  0  0  0999 V2000
   18.0262    1.7648   -8.4167 N   0  0  0  0  0  0  0  0  0  0  0  0
   18.6190    0.9725   -9.0241 C   0  0  0  0  0  0  0  0  0  0  0  0
   19.3652    0.0013   -9.7532 C   0  0  0  0  0  0  0  0  0  0  0  0
   18.8641   -1.2499  -10.0084 C   0  0  0  0  0  0  0  0  0  0  0  0
   19.6120   -2.1536  -10.7119 C   0  0  0  0  0  0  0  0  0  0  0  0
   19.1245   -3.4058  -10.9737 F   0  0  0  0  0  0  0  0  0  0  0  0
   20.8611   -1.8252  -11.1680 C   0  0  0  0  0  0  0  0  0  0  0  0
   21.3880   -0.5480  -10.9149 C   0  0  0  0  0  0  0  0  0  0  0  0
   22.6405   -0.3161  -11.4085 O   0  0  0  0  0  0  0  0  0  0  0  0
   23.8510   -0.4593  -10.7937 C   0  0  0  0  0  0  0  0  0  0  0  0
   23.8739   -0.8668   -9.4630 C   0  0  0  0  0  0  0  0  0  0  0  0
   25.0781   -1.0206   -8.8170 C   0  0  0  0  0  0  0  0  0  0  0  0
   26.2518   -0.7725   -9.4847 C   0  0  0  0  0  0  0  0  0  0  0  0
   27.7570   -0.9789   -8.6321 S   0  0  2  0  0  6  0  0  0  0  0  0
   28.7426   -1.7703   -9.4447 O   0  0  0  0  0  0  0  0  0  0  0  0
   27.4711   -1.7009   -7.3442 O   0  0  0  0  0  0  0  0  0  0  0  0
   28.4626    0.5953   -8.3022 C   0  0  0  0  0  0  0  0  0  0  0  0
   27.7660    1.2593   -7.3103 F   0  0  0  0  0  0  0  0  0  0  0  0
   26.2159   -0.3677  -10.8077 C   0  0  0  0  0  0  0  0  0  0  0  0
   25.0332   -0.2122  -11.4549 C   0  0  0  0  0  0  0  0  0  0  0  0
   25.2735    0.2450  -12.8694 C   0  0  0  0  0  0  0  0  0  0  0  0
   26.7202    0.5889  -12.8929 C   0  0  2  0  0  0  0  0  0  0  0  0
   26.8316    1.9718  -12.8868 F   0  0  0  0  0  0  0  0  0  0  0  0
   27.2710    0.1343  -14.0929 F   0  0  0  0  0  0  0  0  0  0  0  0
   27.3496   -0.0540  -11.7100 C   0  0  1  0  0  0  0  0  0  0  0  0
   28.2243    0.8609  -11.1279 O   0  0  0  0  0  0  0  0  0  0  0  0
   20.6196    0.3398  -10.2076 C   0  0  0  0  0  0  0  0  0  0  0  0
  1  2  3  0
  2  3  1  0
  3  4  2  0
  4  5  1  0
  5  6  1  0
  5  7  2  0
  7  8  1  0
  8  9  1  0
  9 10  1  0
 10 11  2  0
 11 12  1  0
 12 13  2  0
 14 13  1  6
 14 15  2  0
 14 16  2  0
 14 17  1  0
 17 18  1  1
 13 19  1  0
 19 20  2  0
 21 20  1  6
 21 22  1  0
 22 23  1  1
 22 24  1  0
 22 25  1  0
 25 26  1  1
  8 27  2  0
 27  3  1  0
 20 10  1  0
 25 19  1  0
M  END
$$$$
