_rank5
     RDKit          3D

 27 29  0  0  0  0  0  0  0  0999 V2000
   18.4571   -4.0448  -10.3568 N   0  0  0  0  0  0  0  0  0  0  0  0
   18.8220   -2.9436  -10.3071 C   0  0  0  0  0  0  0  0  0  0  0  0
   19.2824   -1.5953  -10.2673 C   0  0  0  0  0  0  0  0  0  0  0  0
   18.4919   -0.5773   -9.7977 C   0  0  0  0  0  0  0  0  0  0  0  0
   18.9709    0.7038   -9.7759 C   0  0  0  0  0  0  0  0  0  0  0  0
   18.1929    1.7293   -9.3101 F   0  0  0  0  0  0  0  0  0  0  0  0
   20.2359    0.9862  -10.2187 C   0  0  0  0  0  0  0  0  0  0  0  0
   21.0576   -0.0453  -10.7023 C   0  0  0  0  0  0  0  0  0  0  0  0
   22.3003    0.3359  -11.1224 O   0  0  0  0  0  0  0  0  0  0  0  0
   23.5222    0.0202  -10.6018 C   0  0  0  0  0  0  0  0  0  0  0  0
   23.5793   -0.4886   -9.3075 C   0  0  0  0  0  0  0  0  0  0  0  0
   24.7957   -0.8166   -8.7562 C   0  0  0  0  0  0  0  0  0  0  0  0
   25.9479   -0.6418   -9.4821 C   0  0  0  0  0  0  0  0  0  0  0  0
   27.4694   -1.0693   -8.7492 S   0  0  2  0  0  6  0  0  0  0  0  0
   28.3089   -1.9024   -9.6760 O   0  0  0  0  0  0  0  0  0  0  0  0
   27.1830   -1.8460   -7.4935 O   0  0  0  0  0  0  0  0  0  0  0  0
   28.3657    0.3923   -8.3681 C   0  0  0  0  0  0  0  0  0  0  0  0
   28.2298    0.7309   -7.0351 F   0  0  0  0  0  0  0  0  0  0  0  0
   25.8781   -0.1348  -10.7681 C   0  0  0  0  0  0  0  0  0  0  0  0
   24.6831    0.1926  -11.3219 C   0  0  0  0  0  0  0  0  0  0  0  0
   24.8877    0.7297  -12.7138 C   0  0  0  0  0  0  0  0  0  0  0  0
   26.3593    0.9214  -12.8102 C   0  0  2  0  0  0  0  0  0  0  0  0
   26.6210    2.2806  -12.7146 F   0  0  0  0  0  0  0  0  0  0  0  0
   26.7852    0.5055  -14.0734 F   0  0  0  0  0  0  0  0  0  0  0  0
   26.9837    0.1272  -11.7202 C   0  0  1  0  0  0  0  0  0  0  0  0
   27.9859    0.8983  -11.1354 O   0  0  0  0  0  0  0  0  0  0  0  0
   20.5549   -1.3204  -10.7144 C   0  0  0  0  0  0  0  0  0  0  0  0
  1  2  3  0
  2  3  1  0
  3  4  2  0
  4  5  1  0
  5  6  1  0
  5  7  2  0
  7  8  1  0
  8  9  1  0
  9 10  1  0
 10 11  2  0
 11 12  1  0
 12 13  2  0
 14 13  1  6
 14 15  2  0
 14 16  2  0
 14 17  1  0
 17 18  1  1
 13 19  1  0
 19 20  2  0
 21 20  1  6
 21 22  1  0
 22 23  1  1
 22 24  1  0
 22 25  1  0
 25 26  1  1
  8 27  2  0
 27  3  1  0
 20 10  1  0
 25 19  1  0
M  END
$$$$
