_rank18
     RDKit          3D

 27 29  0  0  0  0  0  0  0  0999 V2000
   18.5579    1.6091   -8.1878 N   0  0  0  0  0  0  0  0  0  0  0  0
   18.9764    0.8844   -8.9927 C   0  0  0  0  0  0  0  0  0  0  0  0
   19.4692   -0.0022   -9.9940 C   0  0  0  0  0  0  0  0  0  0  0  0
   18.6627   -0.9409  -10.5857 C   0  0  0  0  0  0  0  0  0  0  0  0
   19.1740   -1.7734  -11.5431 C   0  0  0  0  0  0  0  0  0  0  0  0
   18.3806   -2.7149  -12.1417 F   0  0  0  0  0  0  0  0  0  0  0  0
   20.4872   -1.6824  -11.9218 C   0  0  0  0  0  0  0  0  0  0  0  0
   21.3256   -0.7262  -11.3253 C   0  0  0  0  0  0  0  0  0  0  0  0
   22.6179   -0.7142  -11.7680 O   0  0  0  0  0  0  0  0  0  0  0  0
   23.7733   -0.5685  -11.0555 C   0  0  0  0  0  0  0  0  0  0  0  0
   23.7089   -0.6420   -9.6670 C   0  0  0  0  0  0  0  0  0  0  0  0
   24.8562   -0.4998   -8.9222 C   0  0  0  0  0  0  0  0  0  0  0  0
   26.0591   -0.2865   -9.5485 C   0  0  0  0  0  0  0  0  0  0  0  0
   27.4902   -0.1117   -8.5705 S   0  0  2  0  0  6  0  0  0  0  0  0
   28.0415    1.2838   -8.6509 O   0  0  0  0  0  0  0  0  0  0  0  0
   28.5195   -1.0894   -9.0669 O   0  0  0  0  0  0  0  0  0  0  0  0
   27.0954   -0.4455   -6.8919 C   0  0  0  0  0  0  0  0  0  0  0  0
   26.9636    0.7230   -6.1657 F   0  0  0  0  0  0  0  0  0  0  0  0
   26.1102   -0.2151  -10.9298 C   0  0  0  0  0  0  0  0  0  0  0  0
   24.9842   -0.3535  -11.6747 C   0  0  0  0  0  0  0  0  0  0  0  0
   25.3127   -0.2222  -13.1384 C   0  0  0  0  0  0  0  0  0  0  0  0
   26.7167    0.2681  -13.1470 C   0  0  2  0  0  0  0  0  0  0  0  0
   26.6974    1.6161  -13.4747 F   0  0  0  0  0  0  0  0  0  0  0  0
   27.4179   -0.3937  -14.1571 F   0  0  0  0  0  0  0  0  0  0  0  0
   27.2893    0.0011  -11.8018 C   0  0  1  0  0  0  0  0  0  0  0  0
   28.0162    1.1215  -11.4050 O   0  0  0  0  0  0  0  0  0  0  0  0
   20.7901    0.0961  -10.3684 C   0  0  0  0  0  0  0  0  0  0  0  0
  1  2  3  0
  2  3  1  0
  3  4  2  0
  4  5  1  0
  5  6  1  0
  5  7  2  0
  7  8  1  0
  8  9  1  0
  9 10  1  0
 10 11  2  0
 11 12  1  0
 12 13  2  0
 14 13  1  6
 14 15  2  0
 14 16  2  0
 14 17  1  0
 17 18  1  1
 13 19  1  0
 19 20  2  0
 21 20  1  6
 21 22  1  0
 22 23  1  6
 22 24  1  0
 22 25  1  0
 25 26  1  1
  8 27  2  0
 27  3  1  0
 20 10  1  0
 25 19  1  0
M  END
$$$$
