_rank12
     RDKit          3D

 27 29  0  0  0  0  0  0  0  0999 V2000
   18.1651   -4.1648  -10.8644 N   0  0  0  0  0  0  0  0  0  0  0  0
   18.6910   -3.1322  -10.7915 C   0  0  0  0  0  0  0  0  0  0  0  0
   19.3145   -1.8539  -10.6975 C   0  0  0  0  0  0  0  0  0  0  0  0
   18.6815   -0.7843  -10.1170 C   0  0  0  0  0  0  0  0  0  0  0  0
   19.3142    0.4264  -10.0462 C   0  0  0  0  0  0  0  0  0  0  0  0
   18.6944    1.5023   -9.4699 F   0  0  0  0  0  0  0  0  0  0  0  0
   20.5781    0.5868  -10.5494 C   0  0  0  0  0  0  0  0  0  0  0  0
   21.2394   -0.4990  -11.1466 C   0  0  0  0  0  0  0  0  0  0  0  0
   22.4945   -0.2398  -11.6195 O   0  0  0  0  0  0  0  0  0  0  0  0
   23.7000   -0.3897  -10.9966 C   0  0  0  0  0  0  0  0  0  0  0  0
   23.7171   -0.8940   -9.6994 C   0  0  0  0  0  0  0  0  0  0  0  0
   24.9162   -1.0569   -9.0463 C   0  0  0  0  0  0  0  0  0  0  0  0
   26.0906   -0.7227   -9.6739 C   0  0  0  0  0  0  0  0  0  0  0  0
   27.5893   -0.9439   -8.8136 S   0  0  2  0  0  6  0  0  0  0  0  0
   28.7715   -0.8255   -9.7335 O   0  0  0  0  0  0  0  0  0  0  0  0
   27.5731   -2.3113   -8.1876 O   0  0  0  0  0  0  0  0  0  0  0  0
   27.7388    0.2903   -7.5729 C   0  0  0  0  0  0  0  0  0  0  0  0
   28.8480    1.0862   -7.7882 F   0  0  0  0  0  0  0  0  0  0  0  0
   26.0606   -0.2220  -10.9638 C   0  0  0  0  0  0  0  0  0  0  0  0
   24.8829   -0.0566  -11.6177 C   0  0  0  0  0  0  0  0  0  0  0  0
   25.1285    0.5118  -12.9903 C   0  0  0  0  0  0  0  0  0  0  0  0
   26.5633    0.9023  -12.9640 C   0  0  2  0  0  0  0  0  0  0  0  0
   26.6288    2.2839  -12.8540 F   0  0  0  0  0  0  0  0  0  0  0  0
   27.1461    0.5560  -14.1847 F   0  0  0  0  0  0  0  0  0  0  0  0
   27.1962    0.1937  -11.8212 C   0  0  1  0  0  0  0  0  0  0  0  0
   28.0318    1.0902  -11.1585 O   0  0  0  0  0  0  0  0  0  0  0  0
   20.5845   -1.7017  -11.2058 C   0  0  0  0  0  0  0  0  0  0  0  0
  1  2  3  0
  2  3  1  0
  3  4  2  0
  4  5  1  0
  5  6  1  0
  5  7  2  0
  7  8  1  0
  8  9  1  0
  9 10  1  0
 10 11  2  0
 11 12  1  0
 12 13  2  0
 14 13  1  6
 14 15  2  0
 14 16  2  0
 14 17  1  0
 17 18  1  1
 13 19  1  0
 19 20  2  0
 21 20  1  6
 21 22  1  0
 22 23  1  1
 22 24  1  0
 22 25  1  0
 25 26  1  1
  8 27  2  0
 27  3  1  0
 20 10  1  0
 25 19  1  0
M  END
$$$$
