_rank4
     RDKit          3D

 27 29  0  0  0  0  0  0  0  0999 V2000
   18.0800    1.9646   -8.3859 N   0  0  0  0  0  0  0  0  0  0  0  0
   18.6860    1.1685   -8.9751 C   0  0  0  0  0  0  0  0  0  0  0  0
   19.4135    0.1929   -9.7171 C   0  0  0  0  0  0  0  0  0  0  0  0
   18.8877   -1.0443   -9.9904 C   0  0  0  0  0  0  0  0  0  0  0  0
   19.6182   -1.9528  -10.7060 C   0  0  0  0  0  0  0  0  0  0  0  0
   19.1061   -3.1911  -10.9858 F   0  0  0  0  0  0  0  0  0  0  0  0
   20.8742   -1.6431  -11.1561 C   0  0  0  0  0  0  0  0  0  0  0  0
   21.4263   -0.3804  -10.8845 C   0  0  0  0  0  0  0  0  0  0  0  0
   22.6838   -0.1668  -11.3735 O   0  0  0  0  0  0  0  0  0  0  0  0
   23.8823   -0.2062  -10.7209 C   0  0  0  0  0  0  0  0  0  0  0  0
   23.8867   -0.5056   -9.3616 C   0  0  0  0  0  0  0  0  0  0  0  0
   25.0785   -0.5535   -8.6772 C   0  0  0  0  0  0  0  0  0  0  0  0
   26.2581   -0.3065   -9.3348 C   0  0  0  0  0  0  0  0  0  0  0  0
   27.7471   -0.3768   -8.4332 S   0  0  2  0  0  6  0  0  0  0  0  0
   27.8757    0.7908   -7.4962 O   0  0  0  0  0  0  0  0  0  0  0  0
   28.8888   -0.3651   -9.4122 O   0  0  0  0  0  0  0  0  0  0  0  0
   27.7824   -1.8493   -7.4766 C   0  0  0  0  0  0  0  0  0  0  0  0
   28.0867   -1.5820   -6.1553 F   0  0  0  0  0  0  0  0  0  0  0  0
   26.2406   -0.0096  -10.6865 C   0  0  0  0  0  0  0  0  0  0  0  0
   25.0703    0.0408  -11.3717 C   0  0  0  0  0  0  0  0  0  0  0  0
   25.3289    0.3949  -12.8123 C   0  0  0  0  0  0  0  0  0  0  0  0
   26.7596    0.8006  -12.8293 C   0  0  2  0  0  0  0  0  0  0  0  0
   26.8111    2.1833  -12.9316 F   0  0  0  0  0  0  0  0  0  0  0  0
   27.3616    0.2778  -13.9757 F   0  0  0  0  0  0  0  0  0  0  0  0
   27.3837    0.2824  -11.5841 C   0  0  1  0  0  0  0  0  0  0  0  0
   28.2022    1.2790  -11.0569 O   0  0  0  0  0  0  0  0  0  0  0  0
   20.6750    0.5126  -10.1655 C   0  0  0  0  0  0  0  0  0  0  0  0
  1  2  3  0
  2  3  1  0
  3  4  2  0
  4  5  1  0
  5  6  1  0
  5  7  2  0
  7  8  1  0
  8  9  1  0
  9 10  1  0
 10 11  2  0
 11 12  1  0
 12 13  2  0
 14 13  1  6
 14 15  2  0
 14 16  2  0
 14 17  1  0
 17 18  1  1
 13 19  1  0
 19 20  2  0
 21 20  1  6
 21 22  1  0
 22 23  1  6
 22 24  1  0
 22 25  1  0
 25 26  1  1
  8 27  2  0
 27  3  1  0
 20 10  1  0
 25 19  1  0
M  END
$$$$
