_rank10
     RDKit          3D

 27 29  0  0  0  0  0  0  0  0999 V2000
   18.1627    2.2346   -8.8561 N   0  0  0  0  0  0  0  0  0  0  0  0
   18.7394    1.3873   -9.4017 C   0  0  0  0  0  0  0  0  0  0  0  0
   19.4369    0.3541  -10.0928 C   0  0  0  0  0  0  0  0  0  0  0  0
   18.8741   -0.8791  -10.3035 C   0  0  0  0  0  0  0  0  0  0  0  0
   19.5765   -1.8441  -10.9716 C   0  0  0  0  0  0  0  0  0  0  0  0
   19.0273   -3.0791  -11.1888 F   0  0  0  0  0  0  0  0  0  0  0  0
   20.8409   -1.5953  -11.4359 C   0  0  0  0  0  0  0  0  0  0  0  0
   21.4307   -0.3376  -11.2282 C   0  0  0  0  0  0  0  0  0  0  0  0
   22.6937   -0.1868  -11.7264 O   0  0  0  0  0  0  0  0  0  0  0  0
   23.8875   -0.1763  -11.0644 C   0  0  0  0  0  0  0  0  0  0  0  0
   23.8869   -0.4180   -9.6937 C   0  0  0  0  0  0  0  0  0  0  0  0
   25.0740   -0.4147   -8.9995 C   0  0  0  0  0  0  0  0  0  0  0  0
   26.2539   -0.1738   -9.6588 C   0  0  0  0  0  0  0  0  0  0  0  0
   27.7370   -0.1783   -8.7447 S   0  0  2  0  0  6  0  0  0  0  0  0
   27.4905    0.1500   -7.2993 O   0  0  0  0  0  0  0  0  0  0  0  0
   28.6600    0.8469   -9.3439 O   0  0  0  0  0  0  0  0  0  0  0  0
   28.4677   -1.7735   -8.8240 C   0  0  0  0  0  0  0  0  0  0  0  0
   27.7042   -2.7089   -8.1515 F   0  0  0  0  0  0  0  0  0  0  0  0
   26.2415    0.0654  -11.0220 C   0  0  0  0  0  0  0  0  0  0  0  0
   25.0758    0.0651  -11.7168 C   0  0  0  0  0  0  0  0  0  0  0  0
   25.3390    0.3629  -13.1693 C   0  0  0  0  0  0  0  0  0  0  0  0
   26.7622    0.7941  -13.1935 C   0  0  2  0  0  0  0  0  0  0  0  0
   26.7892    2.1720  -13.3538 F   0  0  0  0  0  0  0  0  0  0  0  0
   27.3826    0.2347  -14.3124 F   0  0  0  0  0  0  0  0  0  0  0  0
   27.3860    0.3405  -11.9231 C   0  0  1  0  0  0  0  0  0  0  0  0
   28.1820    1.3735  -11.4328 O   0  0  0  0  0  0  0  0  0  0  0  0
   20.7070    0.6127  -10.5559 C   0  0  0  0  0  0  0  0  0  0  0  0
  1  2  3  0
  2  3  1  0
  3  4  2  0
  4  5  1  0
  5  6  1  0
  5  7  2  0
  7  8  1  0
  8  9  1  0
  9 10  1  0
 10 11  2  0
 11 12  1  0
 12 13  2  0
 14 13  1  6
 14 15  2  0
 14 16  2  0
 14 17  1  0
 17 18  1  1
 13 19  1  0
 19 20  2  0
 21 20  1  6
 21 22  1  0
 22 23  1  6
 22 24  1  0
 22 25  1  0
 25 26  1  1
  8 27  2  0
 27  3  1  0
 20 10  1  0
 25 19  1  0
M  END
$$$$
