_rank14
     RDKit          3D

 27 29  0  0  0  0  0  0  0  0999 V2000
   17.9858    1.6288   -8.3827 N   0  0  0  0  0  0  0  0  0  0  0  0
   18.6567    0.8921   -8.9788 C   0  0  0  0  0  0  0  0  0  0  0  0
   19.4795   -0.0282   -9.6914 C   0  0  0  0  0  0  0  0  0  0  0  0
   19.0767   -1.3169   -9.9337 C   0  0  0  0  0  0  0  0  0  0  0  0
   19.8958   -2.1695  -10.6216 C   0  0  0  0  0  0  0  0  0  0  0  0
   19.5068   -3.4582  -10.8703 F   0  0  0  0  0  0  0  0  0  0  0  0
   21.1193   -1.7524  -11.0748 C   0  0  0  0  0  0  0  0  0  0  0  0
   21.5457   -0.4358  -10.8348 C   0  0  0  0  0  0  0  0  0  0  0  0
   22.7802   -0.1152  -11.3241 O   0  0  0  0  0  0  0  0  0  0  0  0
   23.9969   -0.1812  -10.7085 C   0  0  0  0  0  0  0  0  0  0  0  0
   24.0362   -0.4784   -9.3493 C   0  0  0  0  0  0  0  0  0  0  0  0
   25.2470   -0.5526   -8.7017 C   0  0  0  0  0  0  0  0  0  0  0  0
   26.4112   -0.3339   -9.3957 C   0  0  0  0  0  0  0  0  0  0  0  0
   27.9253   -0.4370   -8.5401 S   0  0  2  0  0  6  0  0  0  0  0  0
   28.3380    0.9006   -7.9940 O   0  0  0  0  0  0  0  0  0  0  0  0
   28.9722   -0.9347   -9.4984 O   0  0  0  0  0  0  0  0  0  0  0  0
   27.7595   -1.5487   -7.1906 C   0  0  0  0  0  0  0  0  0  0  0  0
   27.3790   -2.8060   -7.6201 F   0  0  0  0  0  0  0  0  0  0  0  0
   26.3591   -0.0389  -10.7470 C   0  0  0  0  0  0  0  0  0  0  0  0
   25.1697    0.0373  -11.3961 C   0  0  0  0  0  0  0  0  0  0  0  0
   25.3920    0.3831  -12.8447 C   0  0  0  0  0  0  0  0  0  0  0  0
   26.8304    0.7557  -12.9066 C   0  0  2  0  0  0  0  0  0  0  0  0
   26.9105    2.1367  -13.0136 F   0  0  0  0  0  0  0  0  0  0  0  0
   27.3848    0.2173  -14.0696 F   0  0  0  0  0  0  0  0  0  0  0  0
   27.4804    0.2252  -11.6799 C   0  0  1  0  0  0  0  0  0  0  0  0
   28.3374    1.2036  -11.1804 O   0  0  0  0  0  0  0  0  0  0  0  0
   20.7074    0.3994  -10.1430 C   0  0  0  0  0  0  0  0  0  0  0  0
  1  2  3  0
  2  3  1  0
  3  4  2  0
  4  5  1  0
  5  6  1  0
  5  7  2  0
  7  8  1  0
  8  9  1  0
  9 10  1  0
 10 11  2  0
 11 12  1  0
 12 13  2  0
 14 13  1  6
 14 15  2  0
 14 16  2  0
 14 17  1  0
 17 18  1  1
 13 19  1  0
 19 20  2  0
 21 20  1  6
 21 22  1  0
 22 23  1  6
 22 24  1  0
 22 25  1  0
 25 26  1  1
  8 27  2  0
 27  3  1  0
 20 10  1  0
 25 19  1  0
M  END
$$$$
