_rank1
     RDKit          3D

 27 29  0  0  0  0  0  0  0  0999 V2000
   18.3819    2.0916   -8.5687 N   0  0  0  0  0  0  0  0  0  0  0  0
   18.8624    1.2380   -9.1922 C   0  0  0  0  0  0  0  0  0  0  0  0
   19.4471    0.1742   -9.9393 C   0  0  0  0  0  0  0  0  0  0  0  0
   18.7701   -0.9943  -10.1803 C   0  0  0  0  0  0  0  0  0  0  0  0
   19.3665   -1.9916  -10.9019 C   0  0  0  0  0  0  0  0  0  0  0  0
   18.7027   -3.1629  -11.1498 F   0  0  0  0  0  0  0  0  0  0  0  0
   20.6371   -1.8393  -11.3903 C   0  0  0  0  0  0  0  0  0  0  0  0
   21.3431   -0.6486  -11.1520 C   0  0  0  0  0  0  0  0  0  0  0  0
   22.6027   -0.5923  -11.6779 O   0  0  0  0  0  0  0  0  0  0  0  0
   23.8073   -0.5923  -11.0355 C   0  0  0  0  0  0  0  0  0  0  0  0
   23.8430   -0.9644   -9.6948 C   0  0  0  0  0  0  0  0  0  0  0  0
   25.0418   -0.9749   -9.0211 C   0  0  0  0  0  0  0  0  0  0  0  0
   26.1976   -0.6192   -9.6711 C   0  0  0  0  0  0  0  0  0  0  0  0
   27.6965   -0.6454   -8.7836 S   0  0  2  0  0  6  0  0  0  0  0  0
   28.6569   -1.6469   -9.3601 O   0  0  0  0  0  0  0  0  0  0  0  0
   27.3897   -1.0054   -7.3560 O   0  0  0  0  0  0  0  0  0  0  0  0
   28.4499    0.9393   -8.8619 C   0  0  0  0  0  0  0  0  0  0  0  0
   27.6137    1.9177   -8.3583 F   0  0  0  0  0  0  0  0  0  0  0  0
   26.1491   -0.2509  -11.0043 C   0  0  0  0  0  0  0  0  0  0  0  0
   24.9716   -0.2365  -11.6788 C   0  0  0  0  0  0  0  0  0  0  0  0
   25.1942    0.2111  -13.0993 C   0  0  0  0  0  0  0  0  0  0  0  0
   26.5968    0.7057  -13.1024 C   0  0  2  0  0  0  0  0  0  0  0  0
   26.5615    2.0925  -13.1289 F   0  0  0  0  0  0  0  0  0  0  0  0
   27.2194    0.2848  -14.2793 F   0  0  0  0  0  0  0  0  0  0  0  0
   27.2635    0.1604  -11.8913 C   0  0  1  0  0  0  0  0  0  0  0  0
   28.0234    1.1760  -11.3150 O   0  0  0  0  0  0  0  0  0  0  0  0
   20.7244    0.3358  -10.4261 C   0  0  0  0  0  0  0  0  0  0  0  0
  1  2  3  0
  2  3  1  0
  3  4  2  0
  4  5  1  0
  5  6  1  0
  5  7  2  0
  7  8  1  0
  8  9  1  0
  9 10  1  0
 10 11  2  0
 11 12  1  0
 12 13  2  0
 14 13  1  6
 14 15  2  0
 14 16  2  0
 14 17  1  0
 17 18  1  1
 13 19  1  0
 19 20  2  0
 21 20  1  6
 21 22  1  0
 22 23  1  1
 22 24  1  0
 22 25  1  0
 25 26  1  1
  8 27  2  0
 27  3  1  0
 20 10  1  0
 25 19  1  0
M  END
$$$$
