_rank8
     RDKit          3D

 27 29  0  0  0  0  0  0  0  0999 V2000
   18.9802   -4.4786  -10.6508 N   0  0  0  0  0  0  0  0  0  0  0  0
   19.2623   -3.3542  -10.5857 C   0  0  0  0  0  0  0  0  0  0  0  0
   19.6075   -1.9752  -10.4812 C   0  0  0  0  0  0  0  0  0  0  0  0
   18.7103   -1.0397  -10.0322 C   0  0  0  0  0  0  0  0  0  0  0  0
   19.0806    0.2743   -9.9463 C   0  0  0  0  0  0  0  0  0  0  0  0
   18.1955    1.2185   -9.5002 F   0  0  0  0  0  0  0  0  0  0  0  0
   20.3417    0.6715  -10.3040 C   0  0  0  0  0  0  0  0  0  0  0  0
   21.2718   -0.2746  -10.7654 C   0  0  0  0  0  0  0  0  0  0  0  0
   22.5014    0.2184  -11.0991 O   0  0  0  0  0  0  0  0  0  0  0  0
   23.7254   -0.0897  -10.5789 C   0  0  0  0  0  0  0  0  0  0  0  0
   23.7908   -0.5488   -9.2665 C   0  0  0  0  0  0  0  0  0  0  0  0
   25.0095   -0.8679   -8.7151 C   0  0  0  0  0  0  0  0  0  0  0  0
   26.1557   -0.7333   -9.4586 C   0  0  0  0  0  0  0  0  0  0  0  0
   27.6804   -1.1480   -8.7249 S   0  0  2  0  0  6  0  0  0  0  0  0
   28.6350   -1.7227   -9.7330 O   0  0  0  0  0  0  0  0  0  0  0  0
   27.4202   -2.1601   -7.6433 O   0  0  0  0  0  0  0  0  0  0  0  0
   28.4126    0.2954   -8.0426 C   0  0  0  0  0  0  0  0  0  0  0  0
   27.4708    1.2853   -7.8348 F   0  0  0  0  0  0  0  0  0  0  0  0
   26.0777   -0.2755  -10.7625 C   0  0  0  0  0  0  0  0  0  0  0  0
   24.8804    0.0428  -11.3166 C   0  0  0  0  0  0  0  0  0  0  0  0
   25.0759    0.5237  -12.7301 C   0  0  0  0  0  0  0  0  0  0  0  0
   26.5483    0.6962  -12.8486 C   0  0  2  0  0  0  0  0  0  0  0  0
   26.8246    2.0553  -12.8081 F   0  0  0  0  0  0  0  0  0  0  0  0
   26.9569    0.2275  -14.0989 F   0  0  0  0  0  0  0  0  0  0  0  0
   27.1760   -0.0619  -11.7350 C   0  0  1  0  0  0  0  0  0  0  0  0
   28.1919    0.7207  -11.1904 O   0  0  0  0  0  0  0  0  0  0  0  0
   20.8769   -1.5849  -10.8429 C   0  0  0  0  0  0  0  0  0  0  0  0
  1  2  3  0
  2  3  1  0
  3  4  2  0
  4  5  1  0
  5  6  1  0
  5  7  2  0
  7  8  1  0
  8  9  1  0
  9 10  1  0
 10 11  2  0
 11 12  1  0
 12 13  2  0
 14 13  1  6
 14 15  2  0
 14 16  2  0
 14 17  1  0
 17 18  1  1
 13 19  1  0
 19 20  2  0
 21 20  1  6
 21 22  1  0
 22 23  1  1
 22 24  1  0
 22 25  1  0
 25 26  1  1
  8 27  2  0
 27  3  1  0
 20 10  1  0
 25 19  1  0
M  END
$$$$
