_rank6
     RDKit          3D

 18 19  0  0  0  0  0  0  0  0999 V2000
   25.9142   -1.8244  -13.2590 N   0  0  0  0  0  0  0  0  0  0  0  0
   25.7007   -1.3448  -12.2333 C   0  0  0  0  0  0  0  0  0  0  0  0
   25.4409   -0.7271  -10.9699 C   0  0  0  0  0  0  0  0  0  0  0  0
   26.5200   -0.6111  -10.0959 C   0  0  0  0  0  0  0  0  0  0  0  0
   26.3516   -0.0215   -8.8651 C   0  0  0  0  0  0  0  0  0  0  0  0
   27.5330    0.0767   -7.9727 C   0  0  0  0  0  0  0  0  0  0  0  0
   27.5641   -1.0482   -7.1523 O   0  0  0  0  0  0  0  0  0  0  0  0
   25.1305    0.4612   -8.4728 C   0  0  0  0  0  0  0  0  0  0  0  0
   24.0729    0.3417   -9.3419 C   0  0  0  0  0  0  0  0  0  0  0  0
   24.2274   -0.2514  -10.5883 C   0  0  0  0  0  0  0  0  0  0  0  0
   23.1152   -0.3236  -11.3826 O   0  0  0  0  0  0  0  0  0  0  0  0
   21.8992   -0.8623  -11.0616 C   0  0  0  0  0  0  0  0  0  0  0  0
   21.7761   -1.9067  -10.1852 C   0  0  0  0  0  0  0  0  0  0  0  0
   20.5173   -2.4166   -9.8911 C   0  0  0  0  0  0  0  0  0  0  0  0
   19.3979   -1.8695  -10.4828 C   0  0  0  0  0  0  0  0  0  0  0  0
   18.1901   -2.3996  -10.1659 F   0  0  0  0  0  0  0  0  0  0  0  0
   19.5301   -0.8162  -11.3664 C   0  0  0  0  0  0  0  0  0  0  0  0
   20.7663   -0.2956  -11.6720 C   0  0  0  0  0  0  0  0  0  0  0  0
  1  2  3  0
  2  3  1  0
  3  4  2  0
  4  5  1  0
  5  6  1  0
  6  7  1  6
  5  8  2  0
  8  9  1  0
  9 10  2  0
 10 11  1  0
 11 12  1  0
 12 13  2  0
 13 14  1  0
 14 15  2  0
 15 16  1  0
 15 17  1  0
 17 18  2  0
 10  3  1  0
 18 12  1  0
M  END
$$$$
