_rank19
     RDKit          3D

 18 19  0  0  0  0  0  0  0  0999 V2000
   25.9743   -3.6864   -9.0954 N   0  0  0  0  0  0  0  0  0  0  0  0
   25.8070   -2.7039   -9.6738 C   0  0  0  0  0  0  0  0  0  0  0  0
   25.6231   -1.4852  -10.3992 C   0  0  0  0  0  0  0  0  0  0  0  0
   26.7688   -0.7412  -10.6742 C   0  0  0  0  0  0  0  0  0  0  0  0
   26.6746    0.4386  -11.3743 C   0  0  0  0  0  0  0  0  0  0  0  0
   27.9250    1.1921  -11.6401 C   0  0  0  0  0  0  0  0  0  0  0  0
   28.8532    0.8743  -10.6517 O   0  0  0  0  0  0  0  0  0  0  0  0
   25.4637    0.9059  -11.8139 C   0  0  0  0  0  0  0  0  0  0  0  0
   24.3401    0.1648  -11.5374 C   0  0  0  0  0  0  0  0  0  0  0  0
   24.4193   -1.0286  -10.8312 C   0  0  0  0  0  0  0  0  0  0  0  0
   23.2450   -1.6945  -10.6058 O   0  0  0  0  0  0  0  0  0  0  0  0
   21.9753   -1.1928  -10.6962 C   0  0  0  0  0  0  0  0  0  0  0  0
   21.2903   -1.1596  -11.8810 C   0  0  0  0  0  0  0  0  0  0  0  0
   20.0015   -0.6413  -11.9192 C   0  0  0  0  0  0  0  0  0  0  0  0
   19.4181   -0.1626  -10.7647 C   0  0  0  0  0  0  0  0  0  0  0  0
   18.1585    0.3340  -10.8498 F   0  0  0  0  0  0  0  0  0  0  0  0
   20.1155   -0.1991   -9.5732 C   0  0  0  0  0  0  0  0  0  0  0  0
   21.3923   -0.7079   -9.5122 C   0  0  0  0  0  0  0  0  0  0  0  0
  1  2  3  0
  2  3  1  0
  3  4  2  0
  4  5  1  0
  5  6  1  0
  6  7  1  6
  5  8  2  0
  8  9  1  0
  9 10  2  0
 10 11  1  0
 11 12  1  0
 12 13  2  0
 13 14  1  0
 14 15  2  0
 15 16  1  0
 15 17  1  0
 17 18  2  0
 10  3  1  0
 18 12  1  0
M  END
$$$$
