_rank7
     RDKit          3D

 18 19  0  0  0  0  0  0  0  0999 V2000
   26.1575   -0.8330   -7.5116 N   0  0  0  0  0  0  0  0  0  0  0  0
   25.9696   -0.5893   -8.6220 C   0  0  0  0  0  0  0  0  0  0  0  0
   25.7118   -0.2871   -9.9958 C   0  0  0  0  0  0  0  0  0  0  0  0
   26.8228   -0.1384  -10.8235 C   0  0  0  0  0  0  0  0  0  0  0  0
   26.6564    0.1451  -12.1587 C   0  0  0  0  0  0  0  0  0  0  0  0
   27.8726    0.2937  -12.9958 C   0  0  0  0  0  0  0  0  0  0  0  0
   27.5620    1.0956  -14.0912 O   0  0  0  0  0  0  0  0  0  0  0  0
   25.4061    0.2866  -12.7017 C   0  0  0  0  0  0  0  0  0  0  0  0
   24.3172    0.1381  -11.8769 C   0  0  0  0  0  0  0  0  0  0  0  0
   24.4693   -0.1481  -10.5263 C   0  0  0  0  0  0  0  0  0  0  0  0
   23.3246   -0.2776   -9.7874 O   0  0  0  0  0  0  0  0  0  0  0  0
   22.0915   -0.6729  -10.2289 C   0  0  0  0  0  0  0  0  0  0  0  0
   21.8766   -1.9118  -10.7702 C   0  0  0  0  0  0  0  0  0  0  0  0
   20.6041   -2.2655  -11.2022 C   0  0  0  0  0  0  0  0  0  0  0  0
   19.5635   -1.3679  -11.0845 C   0  0  0  0  0  0  0  0  0  0  0  0
   18.3387   -1.7566  -11.5195 F   0  0  0  0  0  0  0  0  0  0  0  0
   19.7879   -0.1196  -10.5378 C   0  0  0  0  0  0  0  0  0  0  0  0
   21.0394    0.2515  -10.1034 C   0  0  0  0  0  0  0  0  0  0  0  0
  1  2  3  0
  2  3  1  0
  3  4  2  0
  4  5  1  0
  5  6  1  0
  6  7  1  6
  5  8  2  0
  8  9  1  0
  9 10  2  0
 10 11  1  0
 11 12  1  0
 12 13  2  0
 13 14  1  0
 14 15  2  0
 15 16  1  0
 15 17  1  0
 17 18  2  0
 10  3  1  0
 18 12  1  0
M  END
$$$$
