_rank12
     RDKit          3D

 18 19  0  0  0  0  0  0  0  0999 V2000
   27.0850   -1.6081   -8.2202 N   0  0  0  0  0  0  0  0  0  0  0  0
   26.6755   -1.0914   -9.1652 C   0  0  0  0  0  0  0  0  0  0  0  0
   26.1549   -0.4340  -10.3236 C   0  0  0  0  0  0  0  0  0  0  0  0
   27.0818    0.1710  -11.1700 C   0  0  0  0  0  0  0  0  0  0  0  0
   26.6595    0.8164  -12.3084 C   0  0  0  0  0  0  0  0  0  0  0  0
   27.6875    1.4440  -13.1750 C   0  0  0  0  0  0  0  0  0  0  0  0
   27.7807    0.7108  -14.3553 O   0  0  0  0  0  0  0  0  0  0  0  0
   25.3299    0.8792  -12.6343 C   0  0  0  0  0  0  0  0  0  0  0  0
   24.4239    0.2796  -11.7930 C   0  0  0  0  0  0  0  0  0  0  0  0
   24.8353   -0.3759  -10.6396 C   0  0  0  0  0  0  0  0  0  0  0  0
   23.8582   -0.9418   -9.8663 O   0  0  0  0  0  0  0  0  0  0  0  0
   22.5530   -1.1661  -10.2100 C   0  0  0  0  0  0  0  0  0  0  0  0
   21.5247   -0.9622   -9.3296 C   0  0  0  0  0  0  0  0  0  0  0  0
   20.2157   -1.2030   -9.7289 C   0  0  0  0  0  0  0  0  0  0  0  0
   19.9575   -1.6466  -11.0091 C   0  0  0  0  0  0  0  0  0  0  0  0
   18.6645   -1.8684  -11.3546 F   0  0  0  0  0  0  0  0  0  0  0  0
   21.0001   -1.8505  -11.8917 C   0  0  0  0  0  0  0  0  0  0  0  0
   22.3036   -1.6182  -11.5179 C   0  0  0  0  0  0  0  0  0  0  0  0
  1  2  3  0
  2  3  1  0
  3  4  2  0
  4  5  1  0
  5  6  1  0
  6  7  1  6
  5  8  2  0
  8  9  1  0
  9 10  2  0
 10 11  1  0
 11 12  1  0
 12 13  2  0
 13 14  1  0
 14 15  2  0
 15 16  1  0
 15 17  1  0
 17 18  2  0
 10  3  1  0
 18 12  1  0
M  END
$$$$
