_rank5
     RDKit          3D

 18 19  0  0  0  0  0  0  0  0999 V2000
   26.1607    1.3654  -13.4376 N   0  0  0  0  0  0  0  0  0  0  0  0
   26.0793    0.8384  -12.4162 C   0  0  0  0  0  0  0  0  0  0  0  0
   26.0031    0.1819  -11.1479 C   0  0  0  0  0  0  0  0  0  0  0  0
   27.0658    0.3889  -10.2707 C   0  0  0  0  0  0  0  0  0  0  0  0
   27.0618   -0.2020   -9.0291 C   0  0  0  0  0  0  0  0  0  0  0  0
   28.2178    0.0508   -8.1338 C   0  0  0  0  0  0  0  0  0  0  0  0
   28.7531    1.2990   -8.4422 O   0  0  0  0  0  0  0  0  0  0  0  0
   26.0226   -1.0008   -8.6289 C   0  0  0  0  0  0  0  0  0  0  0  0
   24.9797   -1.1987   -9.5014 C   0  0  0  0  0  0  0  0  0  0  0  0
   24.9696   -0.6086  -10.7588 C   0  0  0  0  0  0  0  0  0  0  0  0
   23.8868   -0.8655  -11.5554 O   0  0  0  0  0  0  0  0  0  0  0  0
   22.5663   -0.8284  -11.1991 C   0  0  0  0  0  0  0  0  0  0  0  0
   22.1686   -0.6171   -9.9064 C   0  0  0  0  0  0  0  0  0  0  0  0
   20.8142   -0.5865   -9.5968 C   0  0  0  0  0  0  0  0  0  0  0  0
   19.8768   -0.7693  -10.5919 C   0  0  0  0  0  0  0  0  0  0  0  0
   18.5664   -0.7314  -10.2432 F   0  0  0  0  0  0  0  0  0  0  0  0
   20.2857   -0.9824  -11.8938 C   0  0  0  0  0  0  0  0  0  0  0  0
   21.6211   -1.0164  -12.2230 C   0  0  0  0  0  0  0  0  0  0  0  0
  1  2  3  0
  2  3  1  0
  3  4  2  0
  4  5  1  0
  5  6  1  0
  6  7  1  6
  5  8  2  0
  8  9  1  0
  9 10  2  0
 10 11  1  0
 11 12  1  0
 12 13  2  0
 13 14  1  0
 14 15  2  0
 15 16  1  0
 15 17  1  0
 17 18  2  0
 10  3  1  0
 18 12  1  0
M  END
$$$$
