_rank16
     RDKit          3D

 18 19  0  0  0  0  0  0  0  0999 V2000
   25.2020   -3.7930   -8.3224 N   0  0  0  0  0  0  0  0  0  0  0  0
   25.3108   -2.7560   -8.8128 C   0  0  0  0  0  0  0  0  0  0  0  0
   25.4248   -1.4616   -9.4100 C   0  0  0  0  0  0  0  0  0  0  0  0
   26.6325   -0.7912   -9.2261 C   0  0  0  0  0  0  0  0  0  0  0  0
   26.8216    0.4548   -9.7763 C   0  0  0  0  0  0  0  0  0  0  0  0
   28.1260    1.1251   -9.5500 C   0  0  0  0  0  0  0  0  0  0  0  0
   28.1421    1.6392   -8.2559 O   0  0  0  0  0  0  0  0  0  0  0  0
   25.8365    1.0608  -10.5113 C   0  0  0  0  0  0  0  0  0  0  0  0
   24.6494    0.3914  -10.6867 C   0  0  0  0  0  0  0  0  0  0  0  0
   24.4435   -0.8675  -10.1371 C   0  0  0  0  0  0  0  0  0  0  0  0
   23.2282   -1.4532  -10.3674 O   0  0  0  0  0  0  0  0  0  0  0  0
   21.9955   -0.8637  -10.2966 C   0  0  0  0  0  0  0  0  0  0  0  0
   21.3416   -0.4116  -11.4111 C   0  0  0  0  0  0  0  0  0  0  0  0
   20.0898    0.1784  -11.2855 C   0  0  0  0  0  0  0  0  0  0  0  0
   19.5115    0.3066  -10.0399 C   0  0  0  0  0  0  0  0  0  0  0  0
   18.2885    0.8889   -9.9655 F   0  0  0  0  0  0  0  0  0  0  0  0
   20.1775   -0.1515   -8.9200 C   0  0  0  0  0  0  0  0  0  0  0  0
   21.4174   -0.7389   -9.0210 C   0  0  0  0  0  0  0  0  0  0  0  0
  1  2  3  0
  2  3  1  0
  3  4  2  0
  4  5  1  0
  5  6  1  0
  6  7  1  6
  5  8  2  0
  8  9  1  0
  9 10  2  0
 10 11  1  0
 11 12  1  0
 12 13  2  0
 13 14  1  0
 14 15  2  0
 15 16  1  0
 15 17  1  0
 17 18  2  0
 10  3  1  0
 18 12  1  0
M  END
$$$$
