_rank8
     RDKit          3D

 18 19  0  0  0  0  0  0  0  0999 V2000
   21.2250   -3.6411  -11.4007 N   0  0  0  0  0  0  0  0  0  0  0  0
   21.2880   -2.5392  -11.0696 C   0  0  0  0  0  0  0  0  0  0  0  0
   21.3432   -1.1736  -10.6487 C   0  0  0  0  0  0  0  0  0  0  0  0
   20.1295   -0.5654  -10.3346 C   0  0  0  0  0  0  0  0  0  0  0  0
   20.1011    0.7436   -9.9145 C   0  0  0  0  0  0  0  0  0  0  0  0
   18.7824    1.3432   -9.5929 C   0  0  0  0  0  0  0  0  0  0  0  0
   17.8197    0.7661  -10.4172 O   0  0  0  0  0  0  0  0  0  0  0  0
   21.2546    1.4740   -9.7961 C   0  0  0  0  0  0  0  0  0  0  0  0
   22.4461    0.8651  -10.1084 C   0  0  0  0  0  0  0  0  0  0  0  0
   22.4908   -0.4563  -10.5342 C   0  0  0  0  0  0  0  0  0  0  0  0
   23.7248   -0.9736  -10.8213 O   0  0  0  0  0  0  0  0  0  0  0  0
   24.9092   -0.6918  -10.1969 C   0  0  0  0  0  0  0  0  0  0  0  0
   25.0802   -0.8683   -8.8502 C   0  0  0  0  0  0  0  0  0  0  0  0
   26.3042   -0.5688   -8.2644 C   0  0  0  0  0  0  0  0  0  0  0  0
   27.3410   -0.0950   -9.0410 C   0  0  0  0  0  0  0  0  0  0  0  0
   28.5176    0.1839   -8.4261 F   0  0  0  0  0  0  0  0  0  0  0  0
   27.1608    0.0810  -10.3990 C   0  0  0  0  0  0  0  0  0  0  0  0
   25.9577   -0.2092  -10.9999 C   0  0  0  0  0  0  0  0  0  0  0  0
  1  2  3  0
  2  3  1  0
  3  4  2  0
  4  5  1  0
  5  6  1  0
  6  7  1  6
  5  8  2  0
  8  9  1  0
  9 10  2  0
 10 11  1  0
 11 12  1  0
 12 13  2  0
 13 14  1  0
 14 15  2  0
 15 16  1  0
 15 17  1  0
 17 18  2  0
 10  3  1  0
 18 12  1  0
M  END
$$$$
