_rank18
     RDKit          3D

 18 19  0  0  0  0  0  0  0  0999 V2000
   26.1312   -3.2330   -8.0710 N   0  0  0  0  0  0  0  0  0  0  0  0
   26.1553   -2.2582   -8.6849 C   0  0  0  0  0  0  0  0  0  0  0  0
   26.1901   -1.0616   -9.4673 C   0  0  0  0  0  0  0  0  0  0  0  0
   27.2212   -0.1649   -9.1947 C   0  0  0  0  0  0  0  0  0  0  0  0
   27.3267    1.0047   -9.9101 C   0  0  0  0  0  0  0  0  0  0  0  0
   28.4429    1.9248   -9.5796 C   0  0  0  0  0  0  0  0  0  0  0  0
   29.4073    1.2150   -8.8685 O   0  0  0  0  0  0  0  0  0  0  0  0
   26.4289    1.3131  -10.8985 C   0  0  0  0  0  0  0  0  0  0  0  0
   25.4159    0.4222  -11.1594 C   0  0  0  0  0  0  0  0  0  0  0  0
   25.2962   -0.7631  -10.4453 C   0  0  0  0  0  0  0  0  0  0  0  0
   24.2543   -1.5854  -10.7788 O   0  0  0  0  0  0  0  0  0  0  0  0
   22.9175   -1.3033  -10.7053 C   0  0  0  0  0  0  0  0  0  0  0  0
   22.3571   -0.2581  -11.3891 C   0  0  0  0  0  0  0  0  0  0  0  0
   20.9931   -0.0150  -11.2821 C   0  0  0  0  0  0  0  0  0  0  0  0
   20.2099   -0.8264  -10.4881 C   0  0  0  0  0  0  0  0  0  0  0  0
   18.8835   -0.5513  -10.4139 F   0  0  0  0  0  0  0  0  0  0  0  0
   20.7824   -1.8788   -9.8008 C   0  0  0  0  0  0  0  0  0  0  0  0
   22.1305   -2.1379   -9.8922 C   0  0  0  0  0  0  0  0  0  0  0  0
  1  2  3  0
  2  3  1  0
  3  4  2  0
  4  5  1  0
  5  6  1  0
  6  7  1  6
  5  8  2  0
  8  9  1  0
  9 10  2  0
 10 11  1  0
 11 12  1  0
 12 13  2  0
 13 14  1  0
 14 15  2  0
 15 16  1  0
 15 17  1  0
 17 18  2  0
 10  3  1  0
 18 12  1  0
M  END
$$$$
