_rank15
     RDKit          3D

 18 19  0  0  0  0  0  0  0  0999 V2000
   25.3859   -0.7380   -7.0131 N   0  0  0  0  0  0  0  0  0  0  0  0
   25.2512   -0.5964   -8.1487 C   0  0  0  0  0  0  0  0  0  0  0  0
   25.0637   -0.4068   -9.5537 C   0  0  0  0  0  0  0  0  0  0  0  0
   26.1969   -0.0884  -10.2994 C   0  0  0  0  0  0  0  0  0  0  0  0
   26.0990    0.1016  -11.6578 C   0  0  0  0  0  0  0  0  0  0  0  0
   27.3361    0.4391  -12.4045 C   0  0  0  0  0  0  0  0  0  0  0  0
   28.3120   -0.5053  -12.0964 O   0  0  0  0  0  0  0  0  0  0  0  0
   24.8964   -0.0167  -12.3040 C   0  0  0  0  0  0  0  0  0  0  0  0
   23.7850   -0.3309  -11.5596 C   0  0  0  0  0  0  0  0  0  0  0  0
   23.8680   -0.5256  -10.1868 C   0  0  0  0  0  0  0  0  0  0  0  0
   22.7062   -0.8352   -9.5332 O   0  0  0  0  0  0  0  0  0  0  0  0
   21.4268   -0.6020   -9.9584 C   0  0  0  0  0  0  0  0  0  0  0  0
   20.7626   -1.4761  -10.7763 C   0  0  0  0  0  0  0  0  0  0  0  0
   19.4627   -1.1936  -11.1784 C   0  0  0  0  0  0  0  0  0  0  0  0
   18.8474   -0.0348  -10.7528 C   0  0  0  0  0  0  0  0  0  0  0  0
   17.5782    0.1993  -11.1706 F   0  0  0  0  0  0  0  0  0  0  0  0
   19.5240    0.8425   -9.9281 C   0  0  0  0  0  0  0  0  0  0  0  0
   20.8112    0.5829   -9.5176 C   0  0  0  0  0  0  0  0  0  0  0  0
  1  2  3  0
  2  3  1  0
  3  4  2  0
  4  5  1  0
  5  6  1  0
  6  7  1  6
  5  8  2  0
  8  9  1  0
  9 10  2  0
 10 11  1  0
 11 12  1  0
 12 13  2  0
 13 14  1  0
 14 15  2  0
 15 16  1  0
 15 17  1  0
 17 18  2  0
 10  3  1  0
 18 12  1  0
M  END
$$$$
