_rank14
     RDKit          3D

 18 19  0  0  0  0  0  0  0  0999 V2000
   22.3550   -2.9558   -8.3023 N   0  0  0  0  0  0  0  0  0  0  0  0
   22.0917   -2.0740   -8.9957 C   0  0  0  0  0  0  0  0  0  0  0  0
   21.7889   -0.9775   -9.8625 C   0  0  0  0  0  0  0  0  0  0  0  0
   20.5295   -0.3979   -9.7227 C   0  0  0  0  0  0  0  0  0  0  0  0
   20.1670    0.6661  -10.5148 C   0  0  0  0  0  0  0  0  0  0  0  0
   18.8144    1.2461  -10.3254 C   0  0  0  0  0  0  0  0  0  0  0  0
   18.9392    2.6258  -10.1831 O   0  0  0  0  0  0  0  0  0  0  0  0
   21.0274    1.1766  -11.4513 C   0  0  0  0  0  0  0  0  0  0  0  0
   22.2668    0.5977  -11.5813 C   0  0  0  0  0  0  0  0  0  0  0  0
   22.6473   -0.4775  -10.7886 C   0  0  0  0  0  0  0  0  0  0  0  0
   23.9018   -0.9849  -10.9927 O   0  0  0  0  0  0  0  0  0  0  0  0
   25.0033   -0.8208  -10.1979 C   0  0  0  0  0  0  0  0  0  0  0  0
   24.9004   -0.4925   -8.8729 C   0  0  0  0  0  0  0  0  0  0  0  0
   26.0505   -0.3392   -8.1081 C   0  0  0  0  0  0  0  0  0  0  0  0
   27.2900   -0.5178   -8.6862 C   0  0  0  0  0  0  0  0  0  0  0  0
   28.3847   -0.3579   -7.9011 F   0  0  0  0  0  0  0  0  0  0  0  0
   27.3859   -0.8485  -10.0238 C   0  0  0  0  0  0  0  0  0  0  0  0
   26.2607   -1.0055  -10.7996 C   0  0  0  0  0  0  0  0  0  0  0  0
  1  2  3  0
  2  3  1  0
  3  4  2  0
  4  5  1  0
  5  6  1  0
  6  7  1  6
  5  8  2  0
  8  9  1  0
  9 10  2  0
 10 11  1  0
 11 12  1  0
 12 13  2  0
 13 14  1  0
 14 15  2  0
 15 16  1  0
 15 17  1  0
 17 18  2  0
 10  3  1  0
 18 12  1  0
M  END
$$$$
