_rank9
     RDKit          3D

 18 19  0  0  0  0  0  0  0  0999 V2000
   26.3180   -0.8145   -7.5193 N   0  0  0  0  0  0  0  0  0  0  0  0
   26.0805   -0.5582   -8.6173 C   0  0  0  0  0  0  0  0  0  0  0  0
   25.7677   -0.2574   -9.9800 C   0  0  0  0  0  0  0  0  0  0  0  0
   26.8451   -0.0912  -10.8479 C   0  0  0  0  0  0  0  0  0  0  0  0
   26.6254    0.1921  -12.1754 C   0  0  0  0  0  0  0  0  0  0  0  0
   27.8076    0.3596  -13.0565 C   0  0  0  0  0  0  0  0  0  0  0  0
   28.4407   -0.8737  -13.1888 O   0  0  0  0  0  0  0  0  0  0  0  0
   25.3540    0.3166  -12.6715 C   0  0  0  0  0  0  0  0  0  0  0  0
   24.2986    0.1510  -11.8074 C   0  0  0  0  0  0  0  0  0  0  0  0
   24.5046   -0.1353  -10.4639 C   0  0  0  0  0  0  0  0  0  0  0  0
   23.3900   -0.2825   -9.6835 O   0  0  0  0  0  0  0  0  0  0  0  0
   22.1076   -0.5111  -10.1019 C   0  0  0  0  0  0  0  0  0  0  0  0
   21.1651    0.4814  -10.1300 C   0  0  0  0  0  0  0  0  0  0  0  0
   19.8764    0.1977  -10.5656 C   0  0  0  0  0  0  0  0  0  0  0  0
   19.5519   -1.0813  -10.9673 C   0  0  0  0  0  0  0  0  0  0  0  0
   18.2818   -1.3117  -11.3847 F   0  0  0  0  0  0  0  0  0  0  0  0
   20.5080   -2.0775  -10.9358 C   0  0  0  0  0  0  0  0  0  0  0  0
   21.7899   -1.8191  -10.5084 C   0  0  0  0  0  0  0  0  0  0  0  0
  1  2  3  0
  2  3  1  0
  3  4  2  0
  4  5  1  0
  5  6  1  0
  6  7  1  6
  5  8  2  0
  8  9  1  0
  9 10  2  0
 10 11  1  0
 11 12  1  0
 12 13  2  0
 13 14  1  0
 14 15  2  0
 15 16  1  0
 15 17  1  0
 17 18  2  0
 10  3  1  0
 18 12  1  0
M  END
$$$$
