_rank10
     RDKit          3D

 18 19  0  0  0  0  0  0  0  0999 V2000
   25.0119   -0.8055   -7.0403 N   0  0  0  0  0  0  0  0  0  0  0  0
   25.1104   -0.6883   -8.1823 C   0  0  0  0  0  0  0  0  0  0  0  0
   25.2364   -0.5674   -9.6017 C   0  0  0  0  0  0  0  0  0  0  0  0
   26.4783   -0.8829  -10.1493 C   0  0  0  0  0  0  0  0  0  0  0  0
   26.6758   -0.7988  -11.5076 C   0  0  0  0  0  0  0  0  0  0  0  0
   28.0171   -1.1457  -12.0389 C   0  0  0  0  0  0  0  0  0  0  0  0
   28.9034   -0.1237  -11.7080 O   0  0  0  0  0  0  0  0  0  0  0  0
   25.6657   -0.4064  -12.3466 C   0  0  0  0  0  0  0  0  0  0  0  0
   24.4451   -0.0974  -11.7965 C   0  0  0  0  0  0  0  0  0  0  0  0
   24.2304   -0.1774  -10.4266 C   0  0  0  0  0  0  0  0  0  0  0  0
   22.9809    0.1504   -9.9747 O   0  0  0  0  0  0  0  0  0  0  0  0
   21.8035   -0.4893  -10.2514 C   0  0  0  0  0  0  0  0  0  0  0  0
   21.7646   -1.7978  -10.6517 C   0  0  0  0  0  0  0  0  0  0  0  0
   20.5421   -2.4022  -10.9187 C   0  0  0  0  0  0  0  0  0  0  0  0
   19.3738   -1.6823  -10.7799 C   0  0  0  0  0  0  0  0  0  0  0  0
   18.2041   -2.3134  -11.0515 F   0  0  0  0  0  0  0  0  0  0  0  0
   19.4210   -0.3624  -10.3760 C   0  0  0  0  0  0  0  0  0  0  0  0
   20.6200    0.2560  -10.1062 C   0  0  0  0  0  0  0  0  0  0  0  0
  1  2  3  0
  2  3  1  0
  3  4  2  0
  4  5  1  0
  5  6  1  0
  6  7  1  6
  5  8  2  0
  8  9  1  0
  9 10  2  0
 10 11  1  0
 11 12  1  0
 12 13  2  0
 13 14  1  0
 14 15  2  0
 15 16  1  0
 15 17  1  0
 17 18  2  0
 10  3  1  0
 18 12  1  0
M  END
$$$$
