_rank9
     RDKit          3D

 18 20  0  0  0  0  0  0  0  0999 V2000
   25.9407    0.8766   -7.4927 C   0  0  0  0  0  0  0  0  0  0  0  0
   26.9883   -0.0084   -8.6557 S   0  0  1  0  0  6  0  0  0  0  0  0
   28.3819    0.5067   -8.4191 O   0  0  0  0  0  0  0  0  0  0  0  0
   26.9818   -1.4560   -8.3788 O   0  0  0  0  0  0  0  0  0  0  0  0
   26.4985    0.4454  -10.2663 C   0  0  1  0  0  0  0  0  0  0  0  0
   27.4757   -0.0479  -11.3123 C   0  0  0  0  0  0  0  0  0  0  0  0
   26.6389    0.1389  -12.5851 C   0  0  0  0  0  0  0  0  0  0  0  0
   25.3490   -0.5341  -12.1694 C   0  0  0  0  0  0  0  0  0  0  0  0
   25.1833   -0.0543  -10.7254 C   0  0  1  0  0  0  0  0  0  0  0  0
   24.5868   -1.0800   -9.9460 N   0  0  0  0  0  0  0  0  0  0  0  0
   23.1882   -0.9982  -10.1974 C   0  0  0  0  0  0  0  0  0  0  0  0
   22.1138   -1.8594  -10.0473 C   0  0  0  0  0  0  0  0  0  0  0  0
   20.8259   -1.5206  -10.3769 C   0  0  0  0  0  0  0  0  0  0  0  0
   19.7947   -2.4086  -10.2100 F   0  0  0  0  0  0  0  0  0  0  0  0
   20.5976   -0.2575  -10.8824 C   0  0  0  0  0  0  0  0  0  0  0  0
   21.6515    0.6185  -11.0412 C   0  0  0  0  0  0  0  0  0  0  0  0
   22.9604    0.2789  -10.7080 C   0  0  0  0  0  0  0  0  0  0  0  0
   24.1761    0.9400  -10.7613 O   0  0  0  0  0  0  0  0  0  0  0  0
  2  1  1  1
  2  3  2  0
  2  4  2  0
  5  2  1  1
  5  6  1  0
  6  7  1  1
  7  8  1  1
  8  9  1  1
  9 10  1  1
 10 11  1  0
 11 12  2  0
 12 13  1  0
 13 14  1  0
 13 15  2  0
 15 16  1  0
 16 17  2  0
 17 18  1  0
  9  5  1  0
 17 11  1  0
  9 18  1  0
M  END
$$$$
