_rank16
     RDKit          3D

 18 20  0  0  0  0  0  0  0  0999 V2000
   22.0445   -1.0787   -8.8951 C   0  0  0  0  0  0  0  0  0  0  0  0
   21.4647   -0.8885  -10.5865 S   0  0  1  0  0  6  0  0  0  0  0  0
   20.5230   -2.0375  -10.8238 O   0  0  0  0  0  0  0  0  0  0  0  0
   20.7074    0.3655  -10.7489 O   0  0  0  0  0  0  0  0  0  0  0  0
   22.8380   -1.0731  -11.6447 C   0  0  1  0  0  0  0  0  0  0  0  0
   22.6684   -0.2907  -12.9297 C   0  0  0  0  0  0  0  0  0  0  0  0
   24.1072   -0.3152  -13.4626 C   0  0  0  0  0  0  0  0  0  0  0  0
   24.8660    0.1293  -12.2313 C   0  0  0  0  0  0  0  0  0  0  0  0
   24.1479   -0.6328  -11.1149 C   0  0  1  0  0  0  0  0  0  0  0  0
   24.1223    0.1576   -9.9359 N   0  0  0  0  0  0  0  0  0  0  0  0
   25.3936   -0.0180   -9.3204 C   0  0  0  0  0  0  0  0  0  0  0  0
   26.1332    0.6833   -8.3825 C   0  0  0  0  0  0  0  0  0  0  0  0
   27.3717    0.2832   -7.9485 C   0  0  0  0  0  0  0  0  0  0  0  0
   28.0658    1.0118   -7.0173 F   0  0  0  0  0  0  0  0  0  0  0  0
   27.9000   -0.8763   -8.4773 C   0  0  0  0  0  0  0  0  0  0  0  0
   27.1824   -1.5924   -9.4130 C   0  0  0  0  0  0  0  0  0  0  0  0
   25.9250   -1.1901   -9.8564 C   0  0  0  0  0  0  0  0  0  0  0  0
   25.0077   -1.7000  -10.7600 O   0  0  0  0  0  0  0  0  0  0  0  0
  2  1  1  1
  2  3  2  0
  2  4  2  0
  5  2  1  1
  5  6  1  0
  6  7  1  1
  7  8  1  1
  8  9  1  1
  9 10  1  1
 10 11  1  0
 11 12  2  0
 12 13  1  0
 13 14  1  0
 13 15  2  0
 15 16  1  0
 16 17  2  0
 17 18  1  0
  9  5  1  0
 17 11  1  0
  9 18  1  0
M  END
$$$$
