_rank8
     RDKit          3D

 18 20  0  0  0  0  0  0  0  0999 V2000
   25.5691   -0.2943   -7.5866 C   0  0  0  0  0  0  0  0  0  0  0  0
   26.9513   -0.0810   -8.7167 S   0  0  1  0  0  6  0  0  0  0  0  0
   27.7958    1.0129   -8.1222 O   0  0  0  0  0  0  0  0  0  0  0  0
   27.7703   -1.3042   -8.7886 O   0  0  0  0  0  0  0  0  0  0  0  0
   26.3132    0.4803  -10.2392 C   0  0  1  0  0  0  0  0  0  0  0  0
   27.1120   -0.0455  -11.4130 C   0  0  0  0  0  0  0  0  0  0  0  0
   26.1481    0.2637  -12.5664 C   0  0  0  0  0  0  0  0  0  0  0  0
   24.8641   -0.3191  -12.0178 C   0  0  0  0  0  0  0  0  0  0  0  0
   24.9143    0.1099  -10.5494 C   0  0  1  0  0  0  0  0  0  0  0  0
   24.3291   -0.8963   -9.7367 N   0  0  0  0  0  0  0  0  0  0  0  0
   22.9229   -0.6898   -9.8116 C   0  0  0  0  0  0  0  0  0  0  0  0
   21.8039   -1.4661   -9.5590 C   0  0  0  0  0  0  0  0  0  0  0  0
   20.5199   -1.0094   -9.7165 C   0  0  0  0  0  0  0  0  0  0  0  0
   19.4433   -1.8166   -9.4535 F   0  0  0  0  0  0  0  0  0  0  0  0
   20.3425    0.2888  -10.1483 C   0  0  0  0  0  0  0  0  0  0  0  0
   21.4415    1.0818  -10.4065 C   0  0  0  0  0  0  0  0  0  0  0  0
   22.7466    0.6224  -10.2480 C   0  0  0  0  0  0  0  0  0  0  0  0
   23.9997    1.1837  -10.4285 O   0  0  0  0  0  0  0  0  0  0  0  0
  2  1  1  1
  2  3  2  0
  2  4  2  0
  5  2  1  1
  5  6  1  0
  6  7  1  1
  7  8  1  1
  8  9  1  1
  9 10  1  1
 10 11  1  0
 11 12  2  0
 12 13  1  0
 13 14  1  0
 13 15  2  0
 15 16  1  0
 16 17  2  0
 17 18  1  0
  9  5  1  0
 17 11  1  0
  9 18  1  0
M  END
$$$$
