_rank20
     RDKit          3D

 18 20  0  0  0  0  0  0  0  0999 V2000
   21.5496   -0.9004   -8.3795 C   0  0  0  0  0  0  0  0  0  0  0  0
   21.0320   -0.6014  -10.0753 S   0  0  1  0  0  6  0  0  0  0  0  0
   19.7832   -1.4181  -10.2679 O   0  0  0  0  0  0  0  0  0  0  0  0
   20.6882    0.8168  -10.2818 O   0  0  0  0  0  0  0  0  0  0  0  0
   22.2704   -1.2302  -11.1293 C   0  0  1  0  0  0  0  0  0  0  0  0
   22.0375   -0.8331  -12.5717 C   0  0  0  0  0  0  0  0  0  0  0  0
   23.4076   -1.1668  -13.1770 C   0  0  0  0  0  0  0  0  0  0  0  0
   24.3221   -0.4757  -12.1892 C   0  0  0  0  0  0  0  0  0  0  0  0
   23.6596   -0.8039  -10.8491 C   0  0  1  0  0  0  0  0  0  0  0  0
   23.8204    0.2878   -9.9559 N   0  0  0  0  0  0  0  0  0  0  0  0
   25.1284    0.1564   -9.4101 C   0  0  0  0  0  0  0  0  0  0  0  0
   26.0157    1.0103   -8.7761 C   0  0  0  0  0  0  0  0  0  0  0  0
   27.2538    0.6169   -8.3349 C   0  0  0  0  0  0  0  0  0  0  0  0
   28.0977    1.5000   -7.7121 F   0  0  0  0  0  0  0  0  0  0  0  0
   27.6263   -0.6960   -8.5364 C   0  0  0  0  0  0  0  0  0  0  0  0
   26.7597   -1.5658   -9.1656 C   0  0  0  0  0  0  0  0  0  0  0  0
   25.5022   -1.1709   -9.6150 C   0  0  0  0  0  0  0  0  0  0  0  0
   24.4581   -1.8133  -10.2596 O   0  0  0  0  0  0  0  0  0  0  0  0
  2  1  1  1
  2  3  2  0
  2  4  2  0
  5  2  1  1
  5  6  1  0
  6  7  1  1
  7  8  1  1
  8  9  1  1
  9 10  1  1
 10 11  1  0
 11 12  2  0
 12 13  1  0
 13 14  1  0
 13 15  2  0
 15 16  1  0
 16 17  2  0
 17 18  1  0
  9  5  1  0
 17 11  1  0
  9 18  1  0
M  END
$$$$
