_rank17
     RDKit          3D

 18 20  0  0  0  0  0  0  0  0999 V2000
   20.1560   -2.1535  -11.7516 C   0  0  0  0  0  0  0  0  0  0  0  0
   21.4344   -1.5599  -10.6352 S   0  0  1  0  0  6  0  0  0  0  0  0
   20.7038   -0.9286   -9.4814 O   0  0  0  0  0  0  0  0  0  0  0  0
   22.2402   -2.6771  -10.1109 O   0  0  0  0  0  0  0  0  0  0  0  0
   22.3325   -0.3176  -11.4658 C   0  0  1  0  0  0  0  0  0  0  0  0
   21.5361    0.9637  -11.5931 C   0  0  0  0  0  0  0  0  0  0  0  0
   22.6486    1.9452  -11.9857 C   0  0  0  0  0  0  0  0  0  0  0  0
   23.6826    1.6291  -10.9272 C   0  0  0  0  0  0  0  0  0  0  0  0
   23.6105    0.1023  -10.8488 C   0  0  1  0  0  0  0  0  0  0  0  0
   23.8389   -0.3195   -9.5126 N   0  0  0  0  0  0  0  0  0  0  0  0
   25.2514   -0.3169   -9.3383 C   0  0  0  0  0  0  0  0  0  0  0  0
   26.1038   -0.2890   -8.2468 C   0  0  0  0  0  0  0  0  0  0  0  0
   27.4711   -0.2939   -8.3594 C   0  0  0  0  0  0  0  0  0  0  0  0
   28.2738   -0.2654   -7.2482 F   0  0  0  0  0  0  0  0  0  0  0  0
   28.0167   -0.3284   -9.6261 C   0  0  0  0  0  0  0  0  0  0  0  0
   27.1883   -0.3566  -10.7289 C   0  0  0  0  0  0  0  0  0  0  0  0
   25.8000   -0.3518  -10.6194 C   0  0  0  0  0  0  0  0  0  0  0  0
   24.7565   -0.3746  -11.5296 O   0  0  0  0  0  0  0  0  0  0  0  0
  2  1  1  6
  2  3  2  0
  2  4  2  0
  5  2  1  1
  5  6  1  0
  6  7  1  1
  7  8  1  1
  8  9  1  1
  9 10  1  1
 10 11  1  0
 11 12  2  0
 12 13  1  0
 13 14  1  0
 13 15  2  0
 15 16  1  0
 16 17  2  0
 17 18  1  0
  9  5  1  0
 17 11  1  0
  9 18  1  0
M  END
$$$$
