_rank5
     RDKit          3D

 18 20  0  0  0  0  0  0  0  0999 V2000
   26.9107   -1.6110   -8.7263 C   0  0  0  0  0  0  0  0  0  0  0  0
   26.9264    0.1802   -8.5707 S   0  0  1  0  0  6  0  0  0  0  0  0
   25.9629    0.4991   -7.4600 O   0  0  0  0  0  0  0  0  0  0  0  0
   28.2601    0.6657   -8.1736 O   0  0  0  0  0  0  0  0  0  0  0  0
   26.2998    0.8496  -10.0537 C   0  0  1  0  0  0  0  0  0  0  0  0
   27.2734    0.6854  -11.2015 C   0  0  0  0  0  0  0  0  0  0  0  0
   26.3537    0.9881  -12.3922 C   0  0  0  0  0  0  0  0  0  0  0  0
   25.1802    0.0885  -12.0711 C   0  0  0  0  0  0  0  0  0  0  0  0
   25.0335    0.2737  -10.5589 C   0  0  1  0  0  0  0  0  0  0  0  0
   24.6098   -0.9449   -9.9665 N   0  0  0  0  0  0  0  0  0  0  0  0
   23.2005   -1.0025  -10.1570 C   0  0  0  0  0  0  0  0  0  0  0  0
   22.2496   -2.0095  -10.1381 C   0  0  0  0  0  0  0  0  0  0  0  0
   20.9142   -1.7878  -10.3609 C   0  0  0  0  0  0  0  0  0  0  0  0
   20.0103   -2.8183  -10.3318 F   0  0  0  0  0  0  0  0  0  0  0  0
   20.5058   -0.4950  -10.6157 C   0  0  0  0  0  0  0  0  0  0  0  0
   21.4341    0.5253  -10.6398 C   0  0  0  0  0  0  0  0  0  0  0  0
   22.7906    0.3049  -10.4143 C   0  0  0  0  0  0  0  0  0  0  0  0
   23.9113    1.1178  -10.3795 O   0  0  0  0  0  0  0  0  0  0  0  0
  2  1  1  6
  2  3  2  0
  2  4  2  0
  5  2  1  1
  5  6  1  0
  6  7  1  1
  7  8  1  1
  8  9  1  1
  9 10  1  1
 10 11  1  0
 11 12  2  0
 12 13  1  0
 13 14  1  0
 13 15  2  0
 15 16  1  0
 16 17  2  0
 17 18  1  0
  9  5  1  0
 17 11  1  0
  9 18  1  0
M  END
$$$$
