_rank4
     RDKit          3D

 18 20  0  0  0  0  0  0  0  0999 V2000
   28.1735    1.0894   -8.4192 C   0  0  0  0  0  0  0  0  0  0  0  0
   26.7132    0.0988   -8.7644 S   0  0  1  0  0  6  0  0  0  0  0  0
   27.2039   -1.3182   -8.8858 O   0  0  0  0  0  0  0  0  0  0  0  0
   25.7563    0.1579   -7.6450 O   0  0  0  0  0  0  0  0  0  0  0  0
   26.0834    0.5990  -10.3114 C   0  0  1  0  0  0  0  0  0  0  0  0
   26.8954    0.0364  -11.4588 C   0  0  0  0  0  0  0  0  0  0  0  0
   25.9387    0.2958  -12.6304 C   0  0  0  0  0  0  0  0  0  0  0  0
   24.6544   -0.2759  -12.0706 C   0  0  0  0  0  0  0  0  0  0  0  0
   24.6898    0.2072  -10.6187 C   0  0  1  0  0  0  0  0  0  0  0  0
   24.1052   -0.7727   -9.7741 N   0  0  0  0  0  0  0  0  0  0  0  0
   22.6982   -0.5796   -9.8675 C   0  0  0  0  0  0  0  0  0  0  0  0
   21.5827   -1.3543   -9.5952 C   0  0  0  0  0  0  0  0  0  0  0  0
   20.2968   -0.9132   -9.7794 C   0  0  0  0  0  0  0  0  0  0  0  0
   19.2239   -1.7181   -9.4953 F   0  0  0  0  0  0  0  0  0  0  0  0
   20.1137    0.3669  -10.2601 C   0  0  0  0  0  0  0  0  0  0  0  0
   21.2091    1.1580  -10.5388 C   0  0  0  0  0  0  0  0  0  0  0  0
   22.5161    0.7144  -10.3533 C   0  0  0  0  0  0  0  0  0  0  0  0
   23.7666    1.2779  -10.5446 O   0  0  0  0  0  0  0  0  0  0  0  0
  2  1  1  1
  2  3  2  0
  2  4  2  0
  5  2  1  1
  5  6  1  0
  6  7  1  1
  7  8  1  1
  8  9  1  1
  9 10  1  1
 10 11  1  0
 11 12  2  0
 12 13  1  0
 13 14  1  0
 13 15  2  0
 15 16  1  0
 16 17  2  0
 17 18  1  0
  9  5  1  0
 17 11  1  0
  9 18  1  0
M  END
$$$$
