_rank19
     RDKit          3D

 18 20  0  0  0  0  0  0  0  0999 V2000
   20.9569    0.9642   -9.9516 C   0  0  0  0  0  0  0  0  0  0  0  0
   20.9946   -0.8334   -9.9652 S   0  0  1  0  0  6  0  0  0  0  0  0
   21.4265   -1.2403   -8.5827 O   0  0  0  0  0  0  0  0  0  0  0  0
   19.6514   -1.3896  -10.2077 O   0  0  0  0  0  0  0  0  0  0  0  0
   22.2240   -1.3322  -11.0964 C   0  0  1  0  0  0  0  0  0  0  0  0
   21.9293   -0.8458  -12.4996 C   0  0  0  0  0  0  0  0  0  0  0  0
   23.2922   -1.0761  -13.1661 C   0  0  0  0  0  0  0  0  0  0  0  0
   24.2081   -0.4166  -12.1583 C   0  0  0  0  0  0  0  0  0  0  0  0
   23.6026   -0.8663  -10.8265 C   0  0  1  0  0  0  0  0  0  0  0  0
   23.7461    0.1662   -9.8627 N   0  0  0  0  0  0  0  0  0  0  0  0
   25.0750    0.0541   -9.3655 C   0  0  0  0  0  0  0  0  0  0  0  0
   25.9458    0.8996   -8.6979 C   0  0  0  0  0  0  0  0  0  0  0  0
   27.2125    0.5307   -8.3216 C   0  0  0  0  0  0  0  0  0  0  0  0
   28.0383    1.4040   -7.6619 F   0  0  0  0  0  0  0  0  0  0  0  0
   27.6326   -0.7474   -8.6267 C   0  0  0  0  0  0  0  0  0  0  0  0
   26.7835   -1.6080   -9.2911 C   0  0  0  0  0  0  0  0  0  0  0  0
   25.4969   -1.2380   -9.6751 C   0  0  0  0  0  0  0  0  0  0  0  0
   24.4606   -1.8787  -10.3335 O   0  0  0  0  0  0  0  0  0  0  0  0
  2  1  1  1
  2  3  2  0
  2  4  2  0
  5  2  1  1
  5  6  1  0
  6  7  1  1
  7  8  1  1
  8  9  1  1
  9 10  1  1
 10 11  1  0
 11 12  2  0
 12 13  1  0
 13 14  1  0
 13 15  2  0
 15 16  1  0
 16 17  2  0
 17 18  1  0
  9  5  1  0
 17 11  1  0
  9 18  1  0
M  END
$$$$
