_rank13
     RDKit          3D

 20 21  0  0  0  0  0  0  0  0999 V2000
   25.6371   -0.7050  -12.9722 C   0  0  0  0  0  0  0  0  0  0  0  0
   25.6074    0.5201  -12.0701 C   0  0  2  0  0  0  0  0  0  0  0  0
   26.5424    1.5169  -12.4501 N   0  0  0  0  0  0  0  0  0  0  0  0
   25.7552    0.1812  -10.6509 C   0  0  0  0  0  0  0  0  0  0  0  0
   26.9930   -0.1593  -10.1614 C   0  0  0  0  0  0  0  0  0  0  0  0
   27.1870   -0.5023   -8.8301 C   0  0  0  0  0  0  0  0  0  0  0  0
   28.9159   -0.9869   -8.1781 Br  0  0  0  0  0  0  0  0  0  0  0  0
   26.0896   -0.4948   -8.0041 C   0  0  0  0  0  0  0  0  0  0  0  0
   24.8387   -0.1601   -8.4575 C   0  0  0  0  0  0  0  0  0  0  0  0
   24.6465    0.1801   -9.7817 C   0  0  0  0  0  0  0  0  0  0  0  0
   23.4696    0.5371  -10.3554 O   0  0  0  0  0  0  0  0  0  0  0  0
   22.2199    0.0182  -10.2573 C   0  0  0  0  0  0  0  0  0  0  0  0
   22.0004   -1.3605  -10.3141 C   0  0  0  0  0  0  0  0  0  0  0  0
   20.7397   -1.8739  -10.2160 C   0  0  0  0  0  0  0  0  0  0  0  0
   20.5166   -3.2200  -10.2575 F   0  0  0  0  0  0  0  0  0  0  0  0
   19.6280   -1.0728  -10.0608 C   0  0  0  0  0  0  0  0  0  0  0  0
   19.8365    0.2776  -10.0059 C   0  0  0  0  0  0  0  0  0  0  0  0
   18.6419    1.1071   -9.9022 C   0  0  0  0  0  0  0  0  0  0  0  0
   17.6812    1.7958   -9.8065 N   0  0  0  0  0  0  0  0  0  0  0  0
   21.1015    0.8388  -10.0993 C   0  0  0  0  0  0  0  0  0  0  0  0
  1  2  1  6
  2  3  1  6
  2  4  1  0
  4  5  2  0
  5  6  1  0
  6  7  1  0
  6  8  2  0
  8  9  1  0
  9 10  2  0
 10 11  1  0
 11 12  1  0
 12 13  2  0
 13 14  1  0
 14 15  1  0
 14 16  2  0
 16 17  1  0
 17 18  1  0
 18 19  3  0
 17 20  2  0
 10  4  1  0
 20 12  1  0
M  END
$$$$
