_rank15
     RDKit          3D

 20 21  0  0  0  0  0  0  0  0999 V2000
   26.0677    1.3523   -8.2158 C   0  0  0  0  0  0  0  0  0  0  0  0
   25.4660    0.0051   -8.5881 C   0  0  2  0  0  0  0  0  0  0  0  0
   25.9706   -1.0671   -7.8083 N   0  0  0  0  0  0  0  0  0  0  0  0
   25.5842   -0.2911  -10.0195 C   0  0  0  0  0  0  0  0  0  0  0  0
   26.7856   -0.0907  -10.6555 C   0  0  0  0  0  0  0  0  0  0  0  0
   26.9493   -0.3413  -12.0112 C   0  0  0  0  0  0  0  0  0  0  0  0
   28.6263   -0.0397  -12.8747 Br  0  0  0  0  0  0  0  0  0  0  0  0
   25.8592   -0.7990  -12.7104 C   0  0  0  0  0  0  0  0  0  0  0  0
   24.6443   -1.0108  -12.1090 C   0  0  0  0  0  0  0  0  0  0  0  0
   24.4822   -0.7607  -10.7610 C   0  0  0  0  0  0  0  0  0  0  0  0
   23.3429   -0.9342  -10.0444 O   0  0  0  0  0  0  0  0  0  0  0  0
   22.0384   -0.7245  -10.3522 C   0  0  0  0  0  0  0  0  0  0  0  0
   21.4529   -1.3188  -11.4731 C   0  0  0  0  0  0  0  0  0  0  0  0
   20.1401   -1.1012  -11.7762 C   0  0  0  0  0  0  0  0  0  0  0  0
   19.5560   -1.6876  -12.8618 F   0  0  0  0  0  0  0  0  0  0  0  0
   19.3306   -0.2924  -11.0067 C   0  0  0  0  0  0  0  0  0  0  0  0
   19.8985    0.2932   -9.9091 C   0  0  0  0  0  0  0  0  0  0  0  0
   19.0404    1.1912   -9.1454 C   0  0  0  0  0  0  0  0  0  0  0  0
   18.3271    1.9072   -8.5249 N   0  0  0  0  0  0  0  0  0  0  0  0
   21.2276    0.0958   -9.5653 C   0  0  0  0  0  0  0  0  0  0  0  0
  1  2  1  6
  2  3  1  1
  2  4  1  0
  4  5  2  0
  5  6  1  0
  6  7  1  0
  6  8  2  0
  8  9  1  0
  9 10  2  0
 10 11  1  0
 11 12  1  0
 12 13  2  0
 13 14  1  0
 14 15  1  0
 14 16  2  0
 16 17  1  0
 17 18  1  0
 18 19  3  0
 17 20  2  0
 10  4  1  0
 20 12  1  0
M  END
$$$$
