_rank11
     RDKit          3D

 20 21  0  0  0  0  0  0  0  0999 V2000
   24.7132    1.0810  -13.1208 C   0  0  0  0  0  0  0  0  0  0  0  0
   26.0625    0.5864  -12.6203 C   0  0  2  0  0  0  0  0  0  0  0  0
   26.5964   -0.4691  -13.4033 N   0  0  0  0  0  0  0  0  0  0  0  0
   26.0399    0.2214  -11.2000 C   0  0  0  0  0  0  0  0  0  0  0  0
   27.2120    0.2172  -10.4833 C   0  0  0  0  0  0  0  0  0  0  0  0
   27.2501   -0.1335   -9.1404 C   0  0  0  0  0  0  0  0  0  0  0  0
   28.8957   -0.1461   -8.1704 Br  0  0  0  0  0  0  0  0  0  0  0  0
   26.0657   -0.4847   -8.5401 C   0  0  0  0  0  0  0  0  0  0  0  0
   24.8763   -0.4919   -9.2241 C   0  0  0  0  0  0  0  0  0  0  0  0
   24.8394   -0.1438  -10.5595 C   0  0  0  0  0  0  0  0  0  0  0  0
   23.7351   -0.1017  -11.3472 O   0  0  0  0  0  0  0  0  0  0  0  0
   22.4183   -0.2759  -11.0710 C   0  0  0  0  0  0  0  0  0  0  0  0
   21.6678    0.7275  -10.4528 C   0  0  0  0  0  0  0  0  0  0  0  0
   20.3439    0.5432  -10.1774 C   0  0  0  0  0  0  0  0  0  0  0  0
   19.5994    1.5225   -9.5853 F   0  0  0  0  0  0  0  0  0  0  0  0
   19.6831   -0.6270  -10.4862 C   0  0  0  0  0  0  0  0  0  0  0  0
   20.4128   -1.6133  -11.0901 C   0  0  0  0  0  0  0  0  0  0  0  0
   19.7086   -2.8629  -11.3522 C   0  0  0  0  0  0  0  0  0  0  0  0
   19.1245   -3.8695  -11.5802 N   0  0  0  0  0  0  0  0  0  0  0  0
   21.7591   -1.4648  -11.3891 C   0  0  0  0  0  0  0  0  0  0  0  0
  1  2  1  6
  2  3  1  6
  2  4  1  0
  4  5  2  0
  5  6  1  0
  6  7  1  0
  6  8  2  0
  8  9  1  0
  9 10  2  0
 10 11  1  0
 11 12  1  0
 12 13  2  0
 13 14  1  0
 14 15  1  0
 14 16  2  0
 16 17  1  0
 17 18  1  0
 18 19  3  0
 17 20  2  0
 10  4  1  0
 20 12  1  0
M  END
$$$$
