_rank9
     RDKit          3D

 20 21  0  0  0  0  0  0  0  0999 V2000
   25.8217   -0.4510  -13.1663 C   0  0  0  0  0  0  0  0  0  0  0  0
   25.6470    0.7153  -12.2046 C   0  0  2  0  0  0  0  0  0  0  0  0
   26.5927    1.7531  -12.4069 N   0  0  0  0  0  0  0  0  0  0  0  0
   25.6297    0.2929  -10.8003 C   0  0  0  0  0  0  0  0  0  0  0  0
   26.8116    0.2034  -10.1055 C   0  0  0  0  0  0  0  0  0  0  0  0
   26.8544   -0.2044   -8.7790 C   0  0  0  0  0  0  0  0  0  0  0  0
   28.5128   -0.3352   -7.8401 Br  0  0  0  0  0  0  0  0  0  0  0  0
   25.6642   -0.5241   -8.1724 C   0  0  0  0  0  0  0  0  0  0  0  0
   24.4650   -0.4466   -8.8346 C   0  0  0  0  0  0  0  0  0  0  0  0
   24.4235   -0.0416  -10.1538 C   0  0  0  0  0  0  0  0  0  0  0  0
   23.3100    0.0854  -10.9191 O   0  0  0  0  0  0  0  0  0  0  0  0
   21.9927   -0.0709  -10.6347 C   0  0  0  0  0  0  0  0  0  0  0  0
   21.2078    1.0072  -10.2177 C   0  0  0  0  0  0  0  0  0  0  0  0
   19.8836    0.8408   -9.9323 C   0  0  0  0  0  0  0  0  0  0  0  0
   19.1058    1.8906   -9.5365 F   0  0  0  0  0  0  0  0  0  0  0  0
   19.2560   -0.3828  -10.0348 C   0  0  0  0  0  0  0  0  0  0  0  0
   20.0196   -1.4420  -10.4412 C   0  0  0  0  0  0  0  0  0  0  0  0
   19.3495   -2.7363  -10.4842 C   0  0  0  0  0  0  0  0  0  0  0  0
   18.8186   -3.7956  -10.5333 N   0  0  0  0  0  0  0  0  0  0  0  0
   21.3673   -1.3144  -10.7430 C   0  0  0  0  0  0  0  0  0  0  0  0
  1  2  1  6
  2  3  1  1
  2  4  1  0
  4  5  2  0
  5  6  1  0
  6  7  1  0
  6  8  2  0
  8  9  1  0
  9 10  2  0
 10 11  1  0
 11 12  1  0
 12 13  2  0
 13 14  1  0
 14 15  1  0
 14 16  2  0
 16 17  1  0
 17 18  1  0
 18 19  3  0
 17 20  2  0
 10  4  1  0
 20 12  1  0
M  END
$$$$
