_rank1
     RDKit          3D

 20 21  0  0  0  0  0  0  0  0999 V2000
   26.8044   -0.1273  -13.1360 C   0  0  0  0  0  0  0  0  0  0  0  0
   25.5669    0.3745  -12.4065 C   0  0  2  0  0  0  0  0  0  0  0  0
   25.3237    1.7579  -12.6047 N   0  0  0  0  0  0  0  0  0  0  0  0
   25.5816    0.0479  -10.9768 C   0  0  0  0  0  0  0  0  0  0  0  0
   26.7023    0.3228  -10.2310 C   0  0  0  0  0  0  0  0  0  0  0  0
   26.7754    0.0218   -8.8776 C   0  0  0  0  0  0  0  0  0  0  0  0
   28.3513    0.4004   -7.8665 Br  0  0  0  0  0  0  0  0  0  0  0  0
   25.6807   -0.5707   -8.2969 C   0  0  0  0  0  0  0  0  0  0  0  0
   24.5448   -0.8598   -9.0100 C   0  0  0  0  0  0  0  0  0  0  0  0
   24.4732   -0.5608  -10.3559 C   0  0  0  0  0  0  0  0  0  0  0  0
   23.4124   -0.7854  -11.1721 O   0  0  0  0  0  0  0  0  0  0  0  0
   22.0775   -0.8220  -10.9332 C   0  0  0  0  0  0  0  0  0  0  0  0
   21.2911   -1.8906  -11.3714 C   0  0  0  0  0  0  0  0  0  0  0  0
   19.9485   -1.9185  -11.1279 C   0  0  0  0  0  0  0  0  0  0  0  0
   19.1742   -2.9642  -11.5409 F   0  0  0  0  0  0  0  0  0  0  0  0
   19.3017   -0.9076  -10.4487 C   0  0  0  0  0  0  0  0  0  0  0  0
   20.0660    0.1416  -10.0186 C   0  0  0  0  0  0  0  0  0  0  0  0
   19.3514    1.2264   -9.3563 C   0  0  0  0  0  0  0  0  0  0  0  0
   18.7620    2.1144   -8.8362 N   0  0  0  0  0  0  0  0  0  0  0  0
   21.4331    0.2068  -10.2434 C   0  0  0  0  0  0  0  0  0  0  0  0
  1  2  1  6
  2  3  1  1
  2  4  1  0
  4  5  2  0
  5  6  1  0
  6  7  1  0
  6  8  2  0
  8  9  1  0
  9 10  2  0
 10 11  1  0
 11 12  1  0
 12 13  2  0
 13 14  1  0
 14 15  1  0
 14 16  2  0
 16 17  1  0
 17 18  1  0
 18 19  3  0
 17 20  2  0
 10  4  1  0
 20 12  1  0
M  END
$$$$
