_rank4
     RDKit          3D

 20 21  0  0  0  0  0  0  0  0999 V2000
   26.8660   -0.3885  -13.0803 C   0  0  0  0  0  0  0  0  0  0  0  0
   25.8256    0.3935  -12.2919 C   0  0  2  0  0  0  0  0  0  0  0  0
   25.9315    1.7974  -12.4657 N   0  0  0  0  0  0  0  0  0  0  0  0
   25.8150    0.0443  -10.8676 C   0  0  0  0  0  0  0  0  0  0  0  0
   27.0021   -0.0305  -10.1799 C   0  0  0  0  0  0  0  0  0  0  0  0
   27.0511   -0.3703   -8.8346 C   0  0  0  0  0  0  0  0  0  0  0  0
   28.7164   -0.4825   -7.9055 Br  0  0  0  0  0  0  0  0  0  0  0  0
   25.8617   -0.6367   -8.2014 C   0  0  0  0  0  0  0  0  0  0  0  0
   24.6575   -0.5717   -8.8556 C   0  0  0  0  0  0  0  0  0  0  0  0
   24.6098   -0.2346  -10.1936 C   0  0  0  0  0  0  0  0  0  0  0  0
   23.4910   -0.1271  -10.9542 O   0  0  0  0  0  0  0  0  0  0  0  0
   22.1952   -0.4460  -10.7095 C   0  0  0  0  0  0  0  0  0  0  0  0
   21.7163   -1.7427  -10.9137 C   0  0  0  0  0  0  0  0  0  0  0  0
   20.4109   -2.0545  -10.6663 C   0  0  0  0  0  0  0  0  0  0  0  0
   19.9368   -3.3213  -10.8507 F   0  0  0  0  0  0  0  0  0  0  0  0
   19.5040   -1.1209  -10.2108 C   0  0  0  0  0  0  0  0  0  0  0  0
   19.9666    0.1503  -10.0105 C   0  0  0  0  0  0  0  0  0  0  0  0
   18.9768    1.1335   -9.5867 C   0  0  0  0  0  0  0  0  0  0  0  0
   18.1669    1.9210   -9.2256 N   0  0  0  0  0  0  0  0  0  0  0  0
   21.2858    0.5072  -10.2474 C   0  0  0  0  0  0  0  0  0  0  0  0
  1  2  1  6
  2  3  1  1
  2  4  1  0
  4  5  2  0
  5  6  1  0
  6  7  1  0
  6  8  2  0
  8  9  1  0
  9 10  2  0
 10 11  1  0
 11 12  1  0
 12 13  2  0
 13 14  1  0
 14 15  1  0
 14 16  2  0
 16 17  1  0
 17 18  1  0
 18 19  3  0
 17 20  2  0
 10  4  1  0
 20 12  1  0
M  END
$$$$
