_rank8
     RDKit          3D

 20 21  0  0  0  0  0  0  0  0999 V2000
   26.8987    0.0613  -13.1866 C   0  0  0  0  0  0  0  0  0  0  0  0
   25.8587    0.7953  -12.3529 C   0  0  2  0  0  0  0  0  0  0  0  0
   25.9845    2.2067  -12.4184 N   0  0  0  0  0  0  0  0  0  0  0  0
   25.8262    0.3393  -10.9594 C   0  0  0  0  0  0  0  0  0  0  0  0
   27.0006    0.2329  -10.2543 C   0  0  0  0  0  0  0  0  0  0  0  0
   27.0291   -0.2067   -8.9376 C   0  0  0  0  0  0  0  0  0  0  0  0
   28.6774   -0.3604   -7.9843 Br  0  0  0  0  0  0  0  0  0  0  0  0
   25.8325   -0.5405   -8.3517 C   0  0  0  0  0  0  0  0  0  0  0  0
   24.6405   -0.4468   -9.0246 C   0  0  0  0  0  0  0  0  0  0  0  0
   24.6132   -0.0103  -10.3341 C   0  0  0  0  0  0  0  0  0  0  0  0
   23.5080    0.1354  -11.1081 O   0  0  0  0  0  0  0  0  0  0  0  0
   22.1980   -0.1299  -10.8756 C   0  0  0  0  0  0  0  0  0  0  0  0
   21.3023    0.8856  -10.5308 C   0  0  0  0  0  0  0  0  0  0  0  0
   19.9863    0.6096  -10.2974 C   0  0  0  0  0  0  0  0  0  0  0  0
   19.1011    1.5968   -9.9725 F   0  0  0  0  0  0  0  0  0  0  0  0
   19.4748   -0.6681  -10.3842 C   0  0  0  0  0  0  0  0  0  0  0  0
   20.3471   -1.6664  -10.7199 C   0  0  0  0  0  0  0  0  0  0  0  0
   19.7969   -3.0164  -10.7466 C   0  0  0  0  0  0  0  0  0  0  0  0
   19.3370   -4.1095  -10.7521 N   0  0  0  0  0  0  0  0  0  0  0  0
   21.6907   -1.4274  -10.9674 C   0  0  0  0  0  0  0  0  0  0  0  0
  1  2  1  6
  2  3  1  1
  2  4  1  0
  4  5  2  0
  5  6  1  0
  6  7  1  0
  6  8  2  0
  8  9  1  0
  9 10  2  0
 10 11  1  0
 11 12  1  0
 12 13  2  0
 13 14  1  0
 14 15  1  0
 14 16  2  0
 16 17  1  0
 17 18  1  0
 18 19  3  0
 17 20  2  0
 10  4  1  0
 20 12  1  0
M  END
$$$$
