_rank16
     RDKit          3D

 20 21  0  0  0  0  0  0  0  0999 V2000
   23.7454    2.1280  -12.4414 C   0  0  0  0  0  0  0  0  0  0  0  0
   23.5607    0.6181  -12.4033 C   0  0  2  0  0  0  0  0  0  0  0  0
   23.1888    0.0685  -13.6570 N   0  0  0  0  0  0  0  0  0  0  0  0
   22.6346    0.1879  -11.3506 C   0  0  0  0  0  0  0  0  0  0  0  0
   21.4480    0.8583  -11.1772 C   0  0  0  0  0  0  0  0  0  0  0  0
   20.5415    0.5024  -10.1877 C   0  0  0  0  0  0  0  0  0  0  0  0
   18.9053    1.4610   -9.9577 Br  0  0  0  0  0  0  0  0  0  0  0  0
   20.8705   -0.5528   -9.3723 C   0  0  0  0  0  0  0  0  0  0  0  0
   22.0461   -1.2456   -9.5159 C   0  0  0  0  0  0  0  0  0  0  0  0
   22.9473   -0.8905  -10.4997 C   0  0  0  0  0  0  0  0  0  0  0  0
   24.1362   -1.4935  -10.7537 O   0  0  0  0  0  0  0  0  0  0  0  0
   25.4016   -1.2030  -10.3601 C   0  0  0  0  0  0  0  0  0  0  0  0
   26.4965   -1.4618  -11.1886 C   0  0  0  0  0  0  0  0  0  0  0  0
   27.7663   -1.1676  -10.7840 C   0  0  0  0  0  0  0  0  0  0  0  0
   28.8412   -1.4051  -11.5915 F   0  0  0  0  0  0  0  0  0  0  0  0
   28.0364   -0.6098   -9.5522 C   0  0  0  0  0  0  0  0  0  0  0  0
   26.9688   -0.3555   -8.7363 C   0  0  0  0  0  0  0  0  0  0  0  0
   27.2833    0.1780   -7.4163 C   0  0  0  0  0  0  0  0  0  0  0  0
   27.5325    0.6309   -6.3490 N   0  0  0  0  0  0  0  0  0  0  0  0
   25.6634   -0.6372   -9.1108 C   0  0  0  0  0  0  0  0  0  0  0  0
  1  2  1  6
  2  3  1  6
  2  4  1  0
  4  5  2  0
  5  6  1  0
  6  7  1  0
  6  8  2  0
  8  9  1  0
  9 10  2  0
 10 11  1  0
 11 12  1  0
 12 13  2  0
 13 14  1  0
 14 15  1  0
 14 16  2  0
 16 17  1  0
 17 18  1  0
 18 19  3  0
 17 20  2  0
 10  4  1  0
 20 12  1  0
M  END
$$$$
