_rank7
     RDKit          3D

 20 21  0  0  0  0  0  0  0  0999 V2000
   25.3800    1.8948  -12.4862 C   0  0  0  0  0  0  0  0  0  0  0  0
   26.1094    0.5759  -12.2763 C   0  0  2  0  0  0  0  0  0  0  0  0
   25.6800   -0.4472  -13.1601 N   0  0  0  0  0  0  0  0  0  0  0  0
   26.0590    0.1168  -10.8843 C   0  0  0  0  0  0  0  0  0  0  0  0
   27.2210    0.0349  -10.1558 C   0  0  0  0  0  0  0  0  0  0  0  0
   27.2326   -0.4062   -8.8394 C   0  0  0  0  0  0  0  0  0  0  0  0
   28.8643   -0.5255   -7.8533 Br  0  0  0  0  0  0  0  0  0  0  0  0
   26.0320   -0.7671   -8.2781 C   0  0  0  0  0  0  0  0  0  0  0  0
   24.8521   -0.6983   -8.9748 C   0  0  0  0  0  0  0  0  0  0  0  0
   24.8415   -0.2603  -10.2840 C   0  0  0  0  0  0  0  0  0  0  0  0
   23.7492   -0.1375  -11.0799 O   0  0  0  0  0  0  0  0  0  0  0  0
   22.4352   -0.3941  -10.8605 C   0  0  0  0  0  0  0  0  0  0  0  0
   21.8803   -1.6417  -11.1569 C   0  0  0  0  0  0  0  0  0  0  0  0
   20.5570   -1.8907  -10.9343 C   0  0  0  0  0  0  0  0  0  0  0  0
   20.0087   -3.1105  -11.2088 F   0  0  0  0  0  0  0  0  0  0  0  0
   19.7053   -0.9386  -10.4153 C   0  0  0  0  0  0  0  0  0  0  0  0
   20.2425    0.2850  -10.1245 C   0  0  0  0  0  0  0  0  0  0  0  0
   19.3111    1.2938   -9.6337 C   0  0  0  0  0  0  0  0  0  0  0  0
   18.5699    2.1260   -9.2281 N   0  0  0  0  0  0  0  0  0  0  0  0
   21.5821    0.5774  -10.3335 C   0  0  0  0  0  0  0  0  0  0  0  0
  1  2  1  6
  2  3  1  6
  2  4  1  0
  4  5  2  0
  5  6  1  0
  6  7  1  0
  6  8  2  0
  8  9  1  0
  9 10  2  0
 10 11  1  0
 11 12  1  0
 12 13  2  0
 13 14  1  0
 14 15  1  0
 14 16  2  0
 16 17  1  0
 17 18  1  0
 18 19  3  0
 17 20  2  0
 10  4  1  0
 20 12  1  0
M  END
$$$$
