_rank3
     RDKit          3D

 20 21  0  0  0  0  0  0  0  0999 V2000
   26.7438   -0.3321  -13.1790 C   0  0  0  0  0  0  0  0  0  0  0  0
   25.7340    0.5083  -12.4111 C   0  0  2  0  0  0  0  0  0  0  0  0
   25.8802    1.9013  -12.6357 N   0  0  0  0  0  0  0  0  0  0  0  0
   25.7255    0.2103  -10.9752 C   0  0  0  0  0  0  0  0  0  0  0  0
   26.9056    0.2324  -10.2720 C   0  0  0  0  0  0  0  0  0  0  0  0
   26.9570   -0.0554   -8.9148 C   0  0  0  0  0  0  0  0  0  0  0  0
   28.6134   -0.0328   -7.9635 Br  0  0  0  0  0  0  0  0  0  0  0  0
   25.7775   -0.3709   -8.2856 C   0  0  0  0  0  0  0  0  0  0  0  0
   24.5804   -0.4028   -8.9552 C   0  0  0  0  0  0  0  0  0  0  0  0
   24.5303   -0.1172  -10.3050 C   0  0  0  0  0  0  0  0  0  0  0  0
   23.4174   -0.1052  -11.0816 O   0  0  0  0  0  0  0  0  0  0  0  0
   22.1167   -0.3735  -10.8046 C   0  0  0  0  0  0  0  0  0  0  0  0
   21.5664   -1.6330  -11.0561 C   0  0  0  0  0  0  0  0  0  0  0  0
   20.2564   -1.8939  -10.7757 C   0  0  0  0  0  0  0  0  0  0  0  0
   19.7132   -3.1249  -11.0061 F   0  0  0  0  0  0  0  0  0  0  0  0
   19.4143   -0.9428  -10.2394 C   0  0  0  0  0  0  0  0  0  0  0  0
   19.9470    0.2922   -9.9923 C   0  0  0  0  0  0  0  0  0  0  0  0
   19.0233    1.2985   -9.4820 C   0  0  0  0  0  0  0  0  0  0  0  0
   18.2649    2.1199   -9.0865 N   0  0  0  0  0  0  0  0  0  0  0  0
   21.2732    0.5969  -10.2606 C   0  0  0  0  0  0  0  0  0  0  0  0
  1  2  1  6
  2  3  1  1
  2  4  1  0
  4  5  2  0
  5  6  1  0
  6  7  1  0
  6  8  2  0
  8  9  1  0
  9 10  2  0
 10 11  1  0
 11 12  1  0
 12 13  2  0
 13 14  1  0
 14 15  1  0
 14 16  2  0
 16 17  1  0
 17 18  1  0
 18 19  3  0
 17 20  2  0
 10  4  1  0
 20 12  1  0
M  END
$$$$
