_rank6
     RDKit          3D

 20 21  0  0  0  0  0  0  0  0999 V2000
   26.9408    1.4799  -12.6488 C   0  0  0  0  0  0  0  0  0  0  0  0
   25.7169    0.6117  -12.3966 C   0  0  2  0  0  0  0  0  0  0  0  0
   24.4934    1.2826  -12.6518 N   0  0  0  0  0  0  0  0  0  0  0  0
   25.7136    0.0138  -11.0574 C   0  0  0  0  0  0  0  0  0  0  0  0
   26.9028   -0.1650  -10.3929 C   0  0  0  0  0  0  0  0  0  0  0  0
   26.9589   -0.7386   -9.1297 C   0  0  0  0  0  0  0  0  0  0  0  0
   28.6271   -0.9902   -8.2337 Br  0  0  0  0  0  0  0  0  0  0  0  0
   25.7745   -1.1312   -8.5555 C   0  0  0  0  0  0  0  0  0  0  0  0
   24.5684   -0.9684   -9.1890 C   0  0  0  0  0  0  0  0  0  0  0  0
   24.5137   -0.3987  -10.4453 C   0  0  0  0  0  0  0  0  0  0  0  0
   23.3923   -0.1737  -11.1758 O   0  0  0  0  0  0  0  0  0  0  0  0
   22.0792   -0.3846  -10.9078 C   0  0  0  0  0  0  0  0  0  0  0  0
   21.5076   -1.6533  -11.0348 C   0  0  0  0  0  0  0  0  0  0  0  0
   20.1853   -1.8563  -10.7644 C   0  0  0  0  0  0  0  0  0  0  0  0
   19.6209   -3.0945  -10.8734 F   0  0  0  0  0  0  0  0  0  0  0  0
   19.3510   -0.8357  -10.3598 C   0  0  0  0  0  0  0  0  0  0  0  0
   19.9045    0.4085  -10.2351 C   0  0  0  0  0  0  0  0  0  0  0  0
   18.9906    1.4827   -9.8646 C   0  0  0  0  0  0  0  0  0  0  0  0
   18.2459    2.3481   -9.5440 N   0  0  0  0  0  0  0  0  0  0  0  0
   21.2437    0.6561  -10.4977 C   0  0  0  0  0  0  0  0  0  0  0  0
  1  2  1  6
  2  3  1  1
  2  4  1  0
  4  5  2  0
  5  6  1  0
  6  7  1  0
  6  8  2  0
  8  9  1  0
  9 10  2  0
 10 11  1  0
 11 12  1  0
 12 13  2  0
 13 14  1  0
 14 15  1  0
 14 16  2  0
 16 17  1  0
 17 18  1  0
 18 19  3  0
 17 20  2  0
 10  4  1  0
 20 12  1  0
M  END
$$$$
