_rank5
     RDKit          3D

 20 21  0  0  0  0  0  0  0  0999 V2000
   26.9293    0.0895  -13.2231 C   0  0  0  0  0  0  0  0  0  0  0  0
   25.7177    0.6568  -12.4980 C   0  0  2  0  0  0  0  0  0  0  0  0
   25.5592    2.0543  -12.6831 N   0  0  0  0  0  0  0  0  0  0  0  0
   25.7007    0.3150  -11.0719 C   0  0  0  0  0  0  0  0  0  0  0  0
   26.8709    0.3512  -10.3530 C   0  0  0  0  0  0  0  0  0  0  0  0
   26.9145    0.0238   -9.0044 C   0  0  0  0  0  0  0  0  0  0  0  0
   28.5577    0.0672   -8.0313 Br  0  0  0  0  0  0  0  0  0  0  0  0
   25.7375   -0.3461   -8.4006 C   0  0  0  0  0  0  0  0  0  0  0  0
   24.5502   -0.3935   -9.0866 C   0  0  0  0  0  0  0  0  0  0  0  0
   24.5080   -0.0686  -10.4277 C   0  0  0  0  0  0  0  0  0  0  0  0
   23.4048   -0.0664  -11.2180 O   0  0  0  0  0  0  0  0  0  0  0  0
   22.0869   -0.2184  -10.9342 C   0  0  0  0  0  0  0  0  0  0  0  0
   21.3413    0.8209  -10.3718 C   0  0  0  0  0  0  0  0  0  0  0  0
   20.0162    0.6588  -10.0882 C   0  0  0  0  0  0  0  0  0  0  0  0
   19.2766    1.6725   -9.5505 F   0  0  0  0  0  0  0  0  0  0  0  0
   19.3494   -0.5228  -10.3341 C   0  0  0  0  0  0  0  0  0  0  0  0
   20.0742   -1.5441  -10.8833 C   0  0  0  0  0  0  0  0  0  0  0  0
   19.3634   -2.8022  -11.0784 C   0  0  0  0  0  0  0  0  0  0  0  0
   18.7774   -3.8179  -11.2551 N   0  0  0  0  0  0  0  0  0  0  0  0
   21.4214   -1.4192  -11.1885 C   0  0  0  0  0  0  0  0  0  0  0  0
  1  2  1  6
  2  3  1  1
  2  4  1  0
  4  5  2  0
  5  6  1  0
  6  7  1  0
  6  8  2  0
  8  9  1  0
  9 10  2  0
 10 11  1  0
 11 12  1  0
 12 13  2  0
 13 14  1  0
 14 15  1  0
 14 16  2  0
 16 17  1  0
 17 18  1  0
 18 19  3  0
 17 20  2  0
 10  4  1  0
 20 12  1  0
M  END
$$$$
