_rank17
     RDKit          3D

 20 21  0  0  0  0  0  0  0  0999 V2000
   21.8074    0.5781  -13.3509 C   0  0  0  0  0  0  0  0  0  0  0  0
   22.2343   -0.8665  -13.1351 C   0  0  2  0  0  0  0  0  0  0  0  0
   21.8042   -1.7369  -14.1693 N   0  0  0  0  0  0  0  0  0  0  0  0
   21.8381   -1.3832  -11.8210 C   0  0  0  0  0  0  0  0  0  0  0  0
   20.5586   -1.8473  -11.6336 C   0  0  0  0  0  0  0  0  0  0  0  0
   20.1265   -2.3341  -10.4072 C   0  0  0  0  0  0  0  0  0  0  0  0
   18.3373   -2.9594  -10.1690 Br  0  0  0  0  0  0  0  0  0  0  0  0
   21.0266   -2.3357   -9.3697 C   0  0  0  0  0  0  0  0  0  0  0  0
   22.3122   -1.8803   -9.5198 C   0  0  0  0  0  0  0  0  0  0  0  0
   22.7408   -1.3957  -10.7395 C   0  0  0  0  0  0  0  0  0  0  0  0
   23.9813   -0.9250  -11.0244 O   0  0  0  0  0  0  0  0  0  0  0  0
   25.1024   -0.8106  -10.2688 C   0  0  0  0  0  0  0  0  0  0  0  0
   25.0629   -0.2399   -8.9941 C   0  0  0  0  0  0  0  0  0  0  0  0
   26.1958   -0.1275   -8.2413 C   0  0  0  0  0  0  0  0  0  0  0  0
   26.1649    0.4170   -6.9898 F   0  0  0  0  0  0  0  0  0  0  0  0
   27.4250   -0.5615   -8.6909 C   0  0  0  0  0  0  0  0  0  0  0  0
   27.4701   -1.1197   -9.9385 C   0  0  0  0  0  0  0  0  0  0  0  0
   28.7895   -1.5159  -10.4163 C   0  0  0  0  0  0  0  0  0  0  0  0
   29.8590   -1.8576  -10.7981 N   0  0  0  0  0  0  0  0  0  0  0  0
   26.3418   -1.2545  -10.7337 C   0  0  0  0  0  0  0  0  0  0  0  0
  1  2  1  6
  2  3  1  6
  2  4  1  0
  4  5  2  0
  5  6  1  0
  6  7  1  0
  6  8  2  0
  8  9  1  0
  9 10  2  0
 10 11  1  0
 11 12  1  0
 12 13  2  0
 13 14  1  0
 14 15  1  0
 14 16  2  0
 16 17  1  0
 17 18  1  0
 18 19  3  0
 17 20  2  0
 10  4  1  0
 20 12  1  0
M  END
$$$$
