_rank12
     RDKit          3D

 19 20  0  0  0  0  0  0  0  0999 V2000
   26.5255   -0.2565  -13.6318 C   0  0  0  0  0  0  0  0  0  0  0  0
   26.5530    0.4587  -12.3162 C   0  0  2  0  0  0  0  0  0  0  0  0
   27.8471    0.2364  -11.7043 N   0  0  0  0  0  0  0  0  0  0  0  0
   25.4280    0.0645  -11.3957 C   0  0  2  0  0  0  0  0  0  0  0  0
   24.3080   -0.4247  -12.0339 O   0  0  0  0  0  0  0  0  0  0  0  0
   23.1007   -0.7922  -11.4680 C   0  0  0  0  0  0  0  0  0  0  0  0
   22.2615   -1.6720  -12.1666 C   0  0  0  0  0  0  0  0  0  0  0  0
   21.0458   -2.0807  -11.6644 C   0  0  0  0  0  0  0  0  0  0  0  0
   20.2513   -2.9317  -12.3574 F   0  0  0  0  0  0  0  0  0  0  0  0
   20.6079   -1.6337  -10.4442 C   0  0  0  0  0  0  0  0  0  0  0  0
   21.4040   -0.7688   -9.7284 C   0  0  0  0  0  0  0  0  0  0  0  0
   20.9871   -0.2661   -8.4319 C   0  0  0  0  0  0  0  0  0  0  0  0
   20.6498    0.1513   -7.4076 N   0  0  0  0  0  0  0  0  0  0  0  0
   22.6271   -0.3709  -10.2569 C   0  0  0  0  0  0  0  0  0  0  0  0
   25.1000    1.2737  -10.5457 C   0  0  0  0  0  0  0  0  0  0  0  0
   25.9136    1.8200   -9.6536 C   0  0  0  0  0  0  0  0  0  0  0  0
   25.5102    2.9087   -8.9435 C   0  0  0  0  0  0  0  0  0  0  0  0
   23.8288    3.1740   -9.6055 S   0  0  0  0  0  0  0  0  0  0  0  0
   23.8445    1.8679  -10.7043 C   0  0  0  0  0  0  0  0  0  0  0  0
  1  2  1  1
  2  3  1  1
  2  4  1  0
  4  5  1  6
  5  6  1  0
  6  7  2  0
  7  8  1  0
  8  9  1  0
  8 10  2  0
 10 11  1  0
 11 12  1  0
 12 13  3  0
 11 14  2  0
  4 15  1  0
 15 16  1  0
 16 17  2  0
 17 18  1  0
 18 19  1  0
 14  6  1  0
 19 15  2  0
M  END
$$$$
