_rank4
     RDKit          3D

 19 20  0  0  0  0  0  0  0  0999 V2000
   26.7081    1.3624  -12.3074 C   0  0  0  0  0  0  0  0  0  0  0  0
   26.0448    0.0256  -12.4345 C   0  0  2  0  0  0  0  0  0  0  0  0
   25.2766    0.0138  -13.6626 N   0  0  0  0  0  0  0  0  0  0  0  0
   25.1961   -0.3382  -11.2447 C   0  0  2  0  0  0  0  0  0  0  0  0
   24.1017    0.4770  -11.0485 O   0  0  0  0  0  0  0  0  0  0  0  0
   22.8173    0.1042  -10.6962 C   0  0  0  0  0  0  0  0  0  0  0  0
   22.4742   -1.2553  -10.7140 C   0  0  0  0  0  0  0  0  0  0  0  0
   21.2149   -1.6988  -10.3755 C   0  0  0  0  0  0  0  0  0  0  0  0
   20.9060   -3.0178  -10.4000 F   0  0  0  0  0  0  0  0  0  0  0  0
   20.2381   -0.8111  -10.0034 C   0  0  0  0  0  0  0  0  0  0  0  0
   20.5368    0.5320   -9.9737 C   0  0  0  0  0  0  0  0  0  0  0  0
   19.5389    1.5128   -9.5872 C   0  0  0  0  0  0  0  0  0  0  0  0
   18.7583    2.3067   -9.2745 N   0  0  0  0  0  0  0  0  0  0  0  0
   21.8155    0.9547  -10.3199 C   0  0  0  0  0  0  0  0  0  0  0  0
   26.1046   -0.3505  -10.0335 C   0  0  0  0  0  0  0  0  0  0  0  0
   26.3524    0.6949   -9.2576 C   0  0  0  0  0  0  0  0  0  0  0  0
   27.1901    0.5668   -8.1926 C   0  0  0  0  0  0  0  0  0  0  0  0
   27.6629   -1.1935   -8.3096 S   0  0  0  0  0  0  0  0  0  0  0  0
   26.7375   -1.5512   -9.6985 C   0  0  0  0  0  0  0  0  0  0  0  0
  1  2  1  1
  2  3  1  6
  2  4  1  0
  4  5  1  1
  5  6  1  0
  6  7  2  0
  7  8  1  0
  8  9  1  0
  8 10  2  0
 10 11  1  0
 11 12  1  0
 12 13  3  0
 11 14  2  0
  4 15  1  0
 15 16  1  0
 16 17  2  0
 17 18  1  0
 18 19  1  0
 14  6  1  0
 19 15  2  0
M  END
$$$$
