_rank14
     RDKit          3D

 19 20  0  0  0  0  0  0  0  0999 V2000
   24.0401   -0.5083  -14.0249 C   0  0  0  0  0  0  0  0  0  0  0  0
   23.8870    0.7083  -13.1649 C   0  0  2  0  0  0  0  0  0  0  0  0
   24.6580    1.7831  -13.7554 N   0  0  0  0  0  0  0  0  0  0  0  0
   24.2672    0.4771  -11.7260 C   0  0  2  0  0  0  0  0  0  0  0  0
   25.5044   -0.1036  -11.5447 O   0  0  0  0  0  0  0  0  0  0  0  0
   26.2267   -0.2144  -10.3704 C   0  0  0  0  0  0  0  0  0  0  0  0
   27.5034   -0.7930  -10.4089 C   0  0  0  0  0  0  0  0  0  0  0  0
   28.2786   -0.9356   -9.2793 C   0  0  0  0  0  0  0  0  0  0  0  0
   29.5099   -1.4978   -9.3404 F   0  0  0  0  0  0  0  0  0  0  0  0
   27.8205   -0.5096   -8.0590 C   0  0  0  0  0  0  0  0  0  0  0  0
   26.5717    0.0635   -7.9810 C   0  0  0  0  0  0  0  0  0  0  0  0
   26.0398    0.5308   -6.7137 C   0  0  0  0  0  0  0  0  0  0  0  0
   25.6270    0.8897   -5.6949 N   0  0  0  0  0  0  0  0  0  0  0  0
   25.8082    0.1963   -9.1356 C   0  0  0  0  0  0  0  0  0  0  0  0
   23.1664   -0.3523  -11.0995 C   0  0  0  0  0  0  0  0  0  0  0  0
   22.2955    0.0907  -10.2042 C   0  0  0  0  0  0  0  0  0  0  0  0
   21.3461   -0.7484   -9.7072 C   0  0  0  0  0  0  0  0  0  0  0  0
   21.7297   -2.2991  -10.5926 S   0  0  0  0  0  0  0  0  0  0  0  0
   23.0504   -1.6908  -11.4865 C   0  0  0  0  0  0  0  0  0  0  0  0
  1  2  1  1
  2  3  1  6
  2  4  1  0
  4  5  1  6
  5  6  1  0
  6  7  2  0
  7  8  1  0
  8  9  1  0
  8 10  2  0
 10 11  1  0
 11 12  1  0
 12 13  3  0
 11 14  2  0
  4 15  1  0
 15 16  1  0
 16 17  2  0
 17 18  1  0
 18 19  1  0
 14  6  1  0
 19 15  2  0
M  END
$$$$
