_rank7
     RDKit          3D

 19 20  0  0  0  0  0  0  0  0999 V2000
   26.8903   -1.5541  -12.4278 C   0  0  0  0  0  0  0  0  0  0  0  0
   25.9037   -0.4418  -12.2470 C   0  0  2  0  0  0  0  0  0  0  0  0
   26.6237    0.8147  -12.2785 N   0  0  0  0  0  0  0  0  0  0  0  0
   25.0724   -0.5748  -10.9982 C   0  0  2  0  0  0  0  0  0  0  0  0
   23.9762    0.2596  -10.9460 O   0  0  0  0  0  0  0  0  0  0  0  0
   22.6919   -0.0501  -10.5365 C   0  0  0  0  0  0  0  0  0  0  0  0
   22.3484   -1.3942  -10.3320 C   0  0  0  0  0  0  0  0  0  0  0  0
   21.0892   -1.7759   -9.9247 C   0  0  0  0  0  0  0  0  0  0  0  0
   20.7798   -3.0811   -9.7334 F   0  0  0  0  0  0  0  0  0  0  0  0
   20.1129   -0.8389   -9.7018 C   0  0  0  0  0  0  0  0  0  0  0  0
   20.4121    0.4909   -9.8919 C   0  0  0  0  0  0  0  0  0  0  0  0
   19.4149    1.5221   -9.6698 C   0  0  0  0  0  0  0  0  0  0  0  0
   18.6280    2.3539   -9.5078 N   0  0  0  0  0  0  0  0  0  0  0  0
   21.6906    0.8509  -10.3033 C   0  0  0  0  0  0  0  0  0  0  0  0
   25.9964   -0.3534   -9.8194 C   0  0  0  0  0  0  0  0  0  0  0  0
   26.3707   -1.2898   -8.9595 C   0  0  0  0  0  0  0  0  0  0  0  0
   27.2070   -0.9742   -7.9332 C   0  0  0  0  0  0  0  0  0  0  0  0
   27.4815    0.8084   -8.2207 S   0  0  0  0  0  0  0  0  0  0  0  0
   26.4991    0.9344   -9.6109 C   0  0  0  0  0  0  0  0  0  0  0  0
  1  2  1  1
  2  3  1  1
  2  4  1  0
  4  5  1  6
  5  6  1  0
  6  7  2  0
  7  8  1  0
  8  9  1  0
  8 10  2  0
 10 11  1  0
 11 12  1  0
 12 13  3  0
 11 14  2  0
  4 15  1  0
 15 16  1  0
 16 17  2  0
 17 18  1  0
 18 19  1  0
 14  6  1  0
 19 15  2  0
M  END
$$$$
