_rank3
     RDKit          3D

 19 20  0  0  0  0  0  0  0  0999 V2000
   26.8968    1.5681  -12.0999 C   0  0  0  0  0  0  0  0  0  0  0  0
   26.3266    0.2407  -12.4949 C   0  0  2  0  0  0  0  0  0  0  0  0
   25.7206    0.3769  -13.8036 N   0  0  0  0  0  0  0  0  0  0  0  0
   25.3555   -0.3182  -11.4883 C   0  0  2  0  0  0  0  0  0  0  0  0
   24.2174    0.4383  -11.3065 O   0  0  0  0  0  0  0  0  0  0  0  0
   23.0009    0.0315  -10.7889 C   0  0  0  0  0  0  0  0  0  0  0  0
   22.7920   -1.3312  -10.5325 C   0  0  0  0  0  0  0  0  0  0  0  0
   21.6066   -1.8076  -10.0178 C   0  0  0  0  0  0  0  0  0  0  0  0
   21.4272   -3.1291   -9.7780 F   0  0  0  0  0  0  0  0  0  0  0  0
   20.5737   -0.9513   -9.7341 C   0  0  0  0  0  0  0  0  0  0  0  0
   20.7410    0.3938   -9.9723 C   0  0  0  0  0  0  0  0  0  0  0  0
   19.6791    1.3423   -9.6895 C   0  0  0  0  0  0  0  0  0  0  0  0
   18.8455    2.1125   -9.4679 N   0  0  0  0  0  0  0  0  0  0  0  0
   21.9472    0.8501  -10.4923 C   0  0  0  0  0  0  0  0  0  0  0  0
   26.1129   -0.5041  -10.1906 C   0  0  0  0  0  0  0  0  0  0  0  0
   26.4580    0.4729   -9.3643 C   0  0  0  0  0  0  0  0  0  0  0  0
   27.1413    0.1870   -8.2225 C   0  0  0  0  0  0  0  0  0  0  0  0
   27.3041   -1.6284   -8.3391 S   0  0  0  0  0  0  0  0  0  0  0  0
   26.4834   -1.8018   -9.8256 C   0  0  0  0  0  0  0  0  0  0  0  0
  1  2  1  1
  2  3  1  6
  2  4  1  0
  4  5  1  1
  5  6  1  0
  6  7  2  0
  7  8  1  0
  8  9  1  0
  8 10  2  0
 10 11  1  0
 11 12  1  0
 12 13  3  0
 11 14  2  0
  4 15  1  0
 15 16  1  0
 16 17  2  0
 17 18  1  0
 18 19  1  0
 14  6  1  0
 19 15  2  0
M  END
$$$$
