_rank9
     RDKit          3D

 19 20  0  0  0  0  0  0  0  0999 V2000
   26.0177    1.1491  -13.5145 C   0  0  0  0  0  0  0  0  0  0  0  0
   26.7486    0.5039  -12.3775 C   0  0  2  0  0  0  0  0  0  0  0  0
   27.8247   -0.2970  -12.9242 N   0  0  0  0  0  0  0  0  0  0  0  0
   25.8566   -0.3062  -11.4740 C   0  0  2  0  0  0  0  0  0  0  0  0
   24.6086    0.2389  -11.2594 O   0  0  0  0  0  0  0  0  0  0  0  0
   23.4662   -0.4028  -10.8164 C   0  0  0  0  0  0  0  0  0  0  0  0
   23.2140   -0.4693   -9.4387 C   0  0  0  0  0  0  0  0  0  0  0  0
   22.0973   -1.0920   -8.9264 C   0  0  0  0  0  0  0  0  0  0  0  0
   21.8741   -1.1441   -7.5910 F   0  0  0  0  0  0  0  0  0  0  0  0
   21.1794   -1.6776   -9.7602 C   0  0  0  0  0  0  0  0  0  0  0  0
   21.3924   -1.6329  -11.1192 C   0  0  0  0  0  0  0  0  0  0  0  0
   20.4518   -2.2373  -12.0450 C   0  0  0  0  0  0  0  0  0  0  0  0
   19.7003   -2.7014  -12.7915 N   0  0  0  0  0  0  0  0  0  0  0  0
   22.5274   -0.9983  -11.6118 C   0  0  0  0  0  0  0  0  0  0  0  0
   26.6044   -0.5124  -10.1738 C   0  0  0  0  0  0  0  0  0  0  0  0
   26.8675   -1.6900   -9.6258 C   0  0  0  0  0  0  0  0  0  0  0  0
   27.5486   -1.7545   -8.4492 C   0  0  0  0  0  0  0  0  0  0  0  0
   27.8371    0.0141   -8.0967 S   0  0  0  0  0  0  0  0  0  0  0  0
   27.0563    0.6194   -9.4887 C   0  0  0  0  0  0  0  0  0  0  0  0
  1  2  1  1
  2  3  1  6
  2  4  1  0
  4  5  1  1
  5  6  1  0
  6  7  2  0
  7  8  1  0
  8  9  1  0
  8 10  2  0
 10 11  1  0
 11 12  1  0
 12 13  3  0
 11 14  2  0
  4 15  1  0
 15 16  1  0
 16 17  2  0
 17 18  1  0
 18 19  1  0
 14  6  1  0
 19 15  2  0
M  END
$$$$
