_rank13
     RDKit          3D

 19 20  0  0  0  0  0  0  0  0999 V2000
   24.1047   -0.7948  -13.9119 C   0  0  0  0  0  0  0  0  0  0  0  0
   23.7754    0.3655  -13.0239 C   0  0  2  0  0  0  0  0  0  0  0  0
   24.5670    1.5021  -13.4480 N   0  0  0  0  0  0  0  0  0  0  0  0
   23.9647    0.0719  -11.5589 C   0  0  2  0  0  0  0  0  0  0  0  0
   25.1610   -0.5372  -11.2447 O   0  0  0  0  0  0  0  0  0  0  0  0
   25.8289   -0.5230  -10.0337 C   0  0  0  0  0  0  0  0  0  0  0  0
   25.1421   -0.1114   -8.8826 C   0  0  0  0  0  0  0  0  0  0  0  0
   25.7435   -0.0722   -7.6440 C   0  0  0  0  0  0  0  0  0  0  0  0
   25.0599    0.3291   -6.5451 F   0  0  0  0  0  0  0  0  0  0  0  0
   27.0557   -0.4405   -7.4924 C   0  0  0  0  0  0  0  0  0  0  0  0
   27.7631   -0.8505   -8.5995 C   0  0  0  0  0  0  0  0  0  0  0  0
   29.1545   -1.2506   -8.4933 C   0  0  0  0  0  0  0  0  0  0  0  0
   30.2683   -1.5511   -8.4136 N   0  0  0  0  0  0  0  0  0  0  0  0
   27.1336   -0.8813   -9.8389 C   0  0  0  0  0  0  0  0  0  0  0  0
   22.7822   -0.7617  -11.1126 C   0  0  0  0  0  0  0  0  0  0  0  0
   21.6758   -0.2807  -10.5643 C   0  0  0  0  0  0  0  0  0  0  0  0
   20.6748   -1.1277  -10.1997 C   0  0  0  0  0  0  0  0  0  0  0  0
   21.3723   -2.7457  -10.6804 S   0  0  0  0  0  0  0  0  0  0  0  0
   22.8516   -2.1472  -11.2862 C   0  0  0  0  0  0  0  0  0  0  0  0
  1  2  1  1
  2  3  1  6
  2  4  1  0
  4  5  1  6
  5  6  1  0
  6  7  2  0
  7  8  1  0
  8  9  1  0
  8 10  2  0
 10 11  1  0
 11 12  1  0
 12 13  3  0
 11 14  2  0
  4 15  1  0
 15 16  1  0
 16 17  2  0
 17 18  1  0
 18 19  1  0
 14  6  1  0
 19 15  2  0
M  END
$$$$
