_rank8
     RDKit          3D

 19 20  0  0  0  0  0  0  0  0999 V2000
   26.6476   -0.2670   -8.0480 C   0  0  0  0  0  0  0  0  0  0  0  0
   26.5135   -0.5244   -9.5174 C   0  0  2  0  0  0  0  0  0  0  0  0
   27.6425    0.0840  -10.1909 N   0  0  0  0  0  0  0  0  0  0  0  0
   25.2036   -0.0524  -10.0916 C   0  0  2  0  0  0  0  0  0  0  0  0
   24.1498   -0.9226   -9.9104 O   0  0  0  0  0  0  0  0  0  0  0  0
   22.7973   -0.6513  -10.0109 C   0  0  0  0  0  0  0  0  0  0  0  0
   22.3697    0.6842  -10.0153 C   0  0  0  0  0  0  0  0  0  0  0  0
   21.0395    1.0284  -10.1125 C   0  0  0  0  0  0  0  0  0  0  0  0
   20.6495    2.3260  -10.1148 F   0  0  0  0  0  0  0  0  0  0  0  0
   20.0727    0.0608  -10.2099 C   0  0  0  0  0  0  0  0  0  0  0  0
   20.4534   -1.2618  -10.2089 C   0  0  0  0  0  0  0  0  0  0  0  0
   19.4697   -2.3245  -10.3096 C   0  0  0  0  0  0  0  0  0  0  0  0
   18.6799   -3.1669  -10.3717 N   0  0  0  0  0  0  0  0  0  0  0  0
   21.8025   -1.5836  -10.1097 C   0  0  0  0  0  0  0  0  0  0  0  0
   25.4371    0.2403  -11.5586 C   0  0  0  0  0  0  0  0  0  0  0  0
   25.6287    1.4465  -12.0729 C   0  0  0  0  0  0  0  0  0  0  0  0
   25.8282    1.5903  -13.4115 C   0  0  0  0  0  0  0  0  0  0  0  0
   25.7342   -0.1419  -13.9829 S   0  0  0  0  0  0  0  0  0  0  0  0
   25.4527   -0.8371  -12.4496 C   0  0  0  0  0  0  0  0  0  0  0  0
  1  2  1  1
  2  3  1  6
  2  4  1  0
  4  5  1  6
  5  6  1  0
  6  7  2  0
  7  8  1  0
  8  9  1  0
  8 10  2  0
 10 11  1  0
 11 12  1  0
 12 13  3  0
 11 14  2  0
  4 15  1  0
 15 16  1  0
 16 17  2  0
 17 18  1  0
 18 19  1  0
 14  6  1  0
 19 15  2  0
M  END
$$$$
