_rank20
     RDKit          3D

 19 20  0  0  0  0  0  0  0  0999 V2000
   22.5995    0.6982  -13.0094 C   0  0  0  0  0  0  0  0  0  0  0  0
   22.6279   -0.5514  -12.1842 C   0  0  2  0  0  0  0  0  0  0  0  0
   21.3634   -0.6648  -11.4865 N   0  0  0  0  0  0  0  0  0  0  0  0
   23.7946   -0.6161  -11.2339 C   0  0  2  0  0  0  0  0  0  0  0  0
   23.7713    0.3287  -10.2302 O   0  0  0  0  0  0  0  0  0  0  0  0
   24.3363    0.2437   -8.9706 C   0  0  0  0  0  0  0  0  0  0  0  0
   23.8907   -0.7531   -8.0908 C   0  0  0  0  0  0  0  0  0  0  0  0
   24.4078   -0.8967   -6.8222 C   0  0  0  0  0  0  0  0  0  0  0  0
   23.9617   -1.8676   -5.9890 F   0  0  0  0  0  0  0  0  0  0  0  0
   25.3919   -0.0559   -6.3694 C   0  0  0  0  0  0  0  0  0  0  0  0
   25.8552    0.9353   -7.2043 C   0  0  0  0  0  0  0  0  0  0  0  0
   26.8955    1.8516   -6.7737 C   0  0  0  0  0  0  0  0  0  0  0  0
   27.7151    2.5836   -6.4135 N   0  0  0  0  0  0  0  0  0  0  0  0
   25.3172    1.0598   -8.4804 C   0  0  0  0  0  0  0  0  0  0  0  0
   25.0557   -0.5130  -12.0654 C   0  0  0  0  0  0  0  0  0  0  0  0
   25.5327    0.6072  -12.5888 C   0  0  0  0  0  0  0  0  0  0  0  0
   26.6786    0.5799  -13.3225 C   0  0  0  0  0  0  0  0  0  0  0  0
   27.1106   -1.1935  -13.2593 S   0  0  0  0  0  0  0  0  0  0  0  0
   25.7811   -1.6834  -12.3075 C   0  0  0  0  0  0  0  0  0  0  0  0
  1  2  1  1
  2  3  1  1
  2  4  1  0
  4  5  1  1
  5  6  1  0
  6  7  2  0
  7  8  1  0
  8  9  1  0
  8 10  2  0
 10 11  1  0
 11 12  1  0
 12 13  3  0
 11 14  2  0
  4 15  1  0
 15 16  1  0
 16 17  2  0
 17 18  1  0
 18 19  1  0
 14  6  1  0
 19 15  2  0
M  END
$$$$
