_rank16
     RDKit          3D

 19 20  0  0  0  0  0  0  0  0999 V2000
   24.5225    2.1530  -13.3505 C   0  0  0  0  0  0  0  0  0  0  0  0
   25.1769    0.8981  -12.8603 C   0  0  2  0  0  0  0  0  0  0  0  0
   24.4970   -0.2329  -13.4576 N   0  0  0  0  0  0  0  0  0  0  0  0
   25.2194    0.7913  -11.3586 C   0  0  2  0  0  0  0  0  0  0  0  0
   25.9437   -0.2792  -10.8789 O   0  0  0  0  0  0  0  0  0  0  0  0
   26.4414   -0.4639   -9.6017 C   0  0  0  0  0  0  0  0  0  0  0  0
   27.4403    0.3993   -9.1292 C   0  0  0  0  0  0  0  0  0  0  0  0
   27.9818    0.2747   -7.8689 C   0  0  0  0  0  0  0  0  0  0  0  0
   28.9464    1.1207   -7.4334 F   0  0  0  0  0  0  0  0  0  0  0  0
   27.5553   -0.7141   -7.0198 C   0  0  0  0  0  0  0  0  0  0  0  0
   26.5760   -1.5812   -7.4479 C   0  0  0  0  0  0  0  0  0  0  0  0
   26.0895   -2.6450   -6.5883 C   0  0  0  0  0  0  0  0  0  0  0  0
   25.6939   -3.4790   -5.8917 N   0  0  0  0  0  0  0  0  0  0  0  0
   26.0451   -1.4347   -8.7247 C   0  0  0  0  0  0  0  0  0  0  0  0
   23.7864    0.7563  -10.8713 C   0  0  0  0  0  0  0  0  0  0  0  0
   22.8898   -0.1592  -11.2094 C   0  0  0  0  0  0  0  0  0  0  0  0
   21.6261   -0.0895  -10.7089 C   0  0  0  0  0  0  0  0  0  0  0  0
   21.7272    1.4084   -9.6689 S   0  0  0  0  0  0  0  0  0  0  0  0
   23.3642    1.7629   -9.9977 C   0  0  0  0  0  0  0  0  0  0  0  0
  1  2  1  1
  2  3  1  6
  2  4  1  0
  4  5  1  6
  5  6  1  0
  6  7  2  0
  7  8  1  0
  8  9  1  0
  8 10  2  0
 10 11  1  0
 11 12  1  0
 12 13  3  0
 11 14  2  0
  4 15  1  0
 15 16  1  0
 16 17  2  0
 17 18  1  0
 18 19  1  0
 14  6  1  0
 19 15  2  0
M  END
$$$$
