_rank19
     RDKit          3D

 19 20  0  0  0  0  0  0  0  0999 V2000
   23.0152    1.2335  -13.6375 C   0  0  0  0  0  0  0  0  0  0  0  0
   23.8789    0.0694  -13.2604 C   0  0  2  0  0  0  0  0  0  0  0  0
   23.1886   -1.1487  -13.6319 N   0  0  0  0  0  0  0  0  0  0  0  0
   24.2751    0.0626  -11.8074 C   0  0  2  0  0  0  0  0  0  0  0  0
   25.3846   -0.7028  -11.5178 O   0  0  0  0  0  0  0  0  0  0  0  0
   26.0726   -0.7823  -10.3206 C   0  0  0  0  0  0  0  0  0  0  0  0
   25.9295   -1.9304   -9.5284 C   0  0  0  0  0  0  0  0  0  0  0  0
   26.5839   -2.0780   -8.3254 C   0  0  0  0  0  0  0  0  0  0  0  0
   26.4305   -3.1966   -7.5765 F   0  0  0  0  0  0  0  0  0  0  0  0
   27.4110   -1.0909   -7.8541 C   0  0  0  0  0  0  0  0  0  0  0  0
   27.5769    0.0513   -8.6037 C   0  0  0  0  0  0  0  0  0  0  0  0
   28.4409    1.1260   -8.1501 C   0  0  0  0  0  0  0  0  0  0  0  0
   29.1356    1.9845   -7.8070 N   0  0  0  0  0  0  0  0  0  0  0  0
   26.9054    0.1766   -9.8148 C   0  0  0  0  0  0  0  0  0  0  0  0
   23.0661   -0.3886  -11.0155 C   0  0  0  0  0  0  0  0  0  0  0  0
   22.7351   -1.6510  -10.7853 C   0  0  0  0  0  0  0  0  0  0  0  0
   21.6210   -1.9393  -10.0587 C   0  0  0  0  0  0  0  0  0  0  0  0
   20.9943   -0.2680   -9.6723 S   0  0  0  0  0  0  0  0  0  0  0  0
   22.2257    0.5931  -10.4820 C   0  0  0  0  0  0  0  0  0  0  0  0
  1  2  1  1
  2  3  1  1
  2  4  1  0
  4  5  1  6
  5  6  1  0
  6  7  2  0
  7  8  1  0
  8  9  1  0
  8 10  2  0
 10 11  1  0
 11 12  1  0
 12 13  3  0
 11 14  2  0
  4 15  1  0
 15 16  1  0
 16 17  2  0
 17 18  1  0
 18 19  1  0
 14  6  1  0
 19 15  2  0
M  END
$$$$
