_rank3
     RDKit          3D

 19 20  0  0  0  0  0  0  0  0999 V2000
   26.0014    1.8148  -13.0405 C   0  0  0  0  0  0  0  0  0  0  0  0
   26.6858    0.3576  -12.2904 S   0  0  1  0  0  6  0  0  0  0  0  0
   26.2992   -0.8082  -13.1494 O   0  0  0  0  0  0  0  0  0  0  0  0
   28.1871    0.4554  -12.3180 O   0  0  0  0  0  0  0  0  0  0  0  0
   26.1055    0.1166  -10.6777 C   0  0  0  0  0  0  0  0  0  0  0  0
   26.9908    0.2462   -9.6311 C   0  0  0  0  0  0  0  0  0  0  0  0
   26.6226    0.0733   -8.3119 C   0  0  0  0  0  0  0  0  0  0  0  0
   27.5824    0.2204   -7.2737 N   0  0  0  0  0  0  0  0  0  0  0  0
   25.2998   -0.2467   -8.0123 C   0  0  0  0  0  0  0  0  0  0  0  0
   24.4201   -0.3748   -9.0629 C   0  0  0  0  0  0  0  0  0  0  0  0
   24.7951   -0.2000  -10.3868 C   0  0  0  0  0  0  0  0  0  0  0  0
   23.8707   -0.3386  -11.4315 O   0  0  0  0  0  0  0  0  0  0  0  0
   22.5187   -0.3706  -11.1002 C   0  0  0  0  0  0  0  0  0  0  0  0
   21.8234    0.7649  -10.7065 C   0  0  0  0  0  0  0  0  0  0  0  0
   20.5160    0.7013  -10.3925 N   0  0  0  0  0  0  0  0  0  0  0  0
   19.7945   -0.4279  -10.4313 C   0  0  0  0  0  0  0  0  0  0  0  0
   20.4607   -1.5919  -10.8233 C   0  0  0  0  0  0  0  0  0  0  0  0
   19.7506   -2.7483  -10.8702 F   0  0  0  0  0  0  0  0  0  0  0  0
   21.7868   -1.5561  -11.1474 C   0  0  0  0  0  0  0  0  0  0  0  0
  1  2  1  6
  2  3  2  0
  2  4  2  0
  2  5  1  1
  5  6  2  0
  6  7  1  0
  7  8  1  0
  7  9  2  0
  9 10  1  0
 10 11  2  0
 11 12  1  0
 12 13  1  0
 13 14  2  0
 14 15  1  0
 15 16  2  0
 16 17  1  0
 17 18  1  0
 17 19  2  0
 11  5  1  0
 19 13  1  0
M  END
$$$$
