_rank1
     RDKit          3D

 19 20  0  0  0  0  0  0  0  0999 V2000
   26.9157   -0.7052  -13.3512 C   0  0  0  0  0  0  0  0  0  0  0  0
   26.2525    0.6289  -12.3844 S   0  0  1  0  0  6  0  0  0  0  0  0
   27.2922    1.7078  -12.3432 O   0  0  0  0  0  0  0  0  0  0  0  0
   25.0506    1.1925  -13.0927 O   0  0  0  0  0  0  0  0  0  0  0  0
   25.8538    0.1360  -10.7739 C   0  0  0  0  0  0  0  0  0  0  0  0
   26.8415    0.1524   -9.8147 C   0  0  0  0  0  0  0  0  0  0  0  0
   26.6206   -0.2223   -8.5046 C   0  0  0  0  0  0  0  0  0  0  0  0
   27.6810   -0.1842   -7.5586 N   0  0  0  0  0  0  0  0  0  0  0  0
   25.3464   -0.6377   -8.1226 C   0  0  0  0  0  0  0  0  0  0  0  0
   24.3638   -0.6519   -9.0861 C   0  0  0  0  0  0  0  0  0  0  0  0
   24.5910   -0.2743  -10.4013 C   0  0  0  0  0  0  0  0  0  0  0  0
   23.5648   -0.3016  -11.3560 O   0  0  0  0  0  0  0  0  0  0  0  0
   22.2630   -0.4972  -10.9024 C   0  0  0  0  0  0  0  0  0  0  0  0
   21.6435   -1.7393  -10.9363 C   0  0  0  0  0  0  0  0  0  0  0  0
   20.3832   -1.8962  -10.4901 N   0  0  0  0  0  0  0  0  0  0  0  0
   19.6403   -0.8986   -9.9902 C   0  0  0  0  0  0  0  0  0  0  0  0
   20.2306    0.3669   -9.9401 C   0  0  0  0  0  0  0  0  0  0  0  0
   19.4975    1.3934   -9.4376 F   0  0  0  0  0  0  0  0  0  0  0  0
   21.5076    0.5544  -10.3859 C   0  0  0  0  0  0  0  0  0  0  0  0
  1  2  1  6
  2  3  2  0
  2  4  2  0
  2  5  1  1
  5  6  2  0
  6  7  1  0
  7  8  1  0
  7  9  2  0
  9 10  1  0
 10 11  2  0
 11 12  1  0
 12 13  1  0
 13 14  2  0
 14 15  1  0
 15 16  2  0
 16 17  1  0
 17 18  1  0
 17 19  2  0
 11  5  1  0
 19 13  1  0
M  END
$$$$
