_rank6
     RDKit          3D

 19 20  0  0  0  0  0  0  0  0999 V2000
   28.2617   -0.0995  -12.5904 C   0  0  0  0  0  0  0  0  0  0  0  0
   26.5723    0.3406  -12.2638 S   0  0  1  0  0  6  0  0  0  0  0  0
   26.4337    1.8073  -12.5397 O   0  0  0  0  0  0  0  0  0  0  0  0
   25.6837   -0.3840  -13.2381 O   0  0  0  0  0  0  0  0  0  0  0  0
   26.1118    0.0044  -10.6296 C   0  0  0  0  0  0  0  0  0  0  0  0
   27.0812    0.0285   -9.6521 C   0  0  0  0  0  0  0  0  0  0  0  0
   26.8116   -0.2260   -8.3224 C   0  0  0  0  0  0  0  0  0  0  0  0
   27.8553   -0.1864   -7.3581 N   0  0  0  0  0  0  0  0  0  0  0  0
   25.5049   -0.5216   -7.9388 C   0  0  0  0  0  0  0  0  0  0  0  0
   24.5407   -0.5441   -8.9207 C   0  0  0  0  0  0  0  0  0  0  0  0
   24.8169   -0.2876  -10.2555 C   0  0  0  0  0  0  0  0  0  0  0  0
   23.8082   -0.3195  -11.2286 O   0  0  0  0  0  0  0  0  0  0  0  0
   22.4892   -0.4082  -10.7917 C   0  0  0  0  0  0  0  0  0  0  0  0
   21.7603    0.7063  -10.3989 C   0  0  0  0  0  0  0  0  0  0  0  0
   20.4861    0.5876   -9.9812 N   0  0  0  0  0  0  0  0  0  0  0  0
   19.8310   -0.5798   -9.9103 C   0  0  0  0  0  0  0  0  0  0  0  0
   20.5328   -1.7243  -10.2977 C   0  0  0  0  0  0  0  0  0  0  0  0
   19.8900   -2.9187  -10.2346 F   0  0  0  0  0  0  0  0  0  0  0  0
   21.8263   -1.6328  -10.7256 C   0  0  0  0  0  0  0  0  0  0  0  0
  1  2  1  6
  2  3  2  0
  2  4  2  0
  2  5  1  1
  5  6  2  0
  6  7  1  0
  7  8  1  0
  7  9  2  0
  9 10  1  0
 10 11  2  0
 11 12  1  0
 12 13  1  0
 13 14  2  0
 14 15  1  0
 15 16  2  0
 16 17  1  0
 17 18  1  0
 17 19  2  0
 11  5  1  0
 19 13  1  0
M  END
$$$$
