_rank17
     RDKit          3D

 19 20  0  0  0  0  0  0  0  0999 V2000
   27.9705   -0.0559   -9.0456 C   0  0  0  0  0  0  0  0  0  0  0  0
   26.4105    0.2722   -9.8288 S   0  0  1  0  0  6  0  0  0  0  0  0
   26.4125    1.7144  -10.2370 O   0  0  0  0  0  0  0  0  0  0  0  0
   26.3152   -0.5487  -11.0862 O   0  0  0  0  0  0  0  0  0  0  0  0
   25.0713   -0.0386   -8.7773 C   0  0  0  0  0  0  0  0  0  0  0  0
   25.2991   -0.1094   -7.4212 C   0  0  0  0  0  0  0  0  0  0  0  0
   24.2962   -0.3525   -6.5043 C   0  0  0  0  0  0  0  0  0  0  0  0
   24.5932   -0.4143   -5.1154 N   0  0  0  0  0  0  0  0  0  0  0  0
   22.9913   -0.5361   -6.9575 C   0  0  0  0  0  0  0  0  0  0  0  0
   22.7704   -0.4641   -8.3141 C   0  0  0  0  0  0  0  0  0  0  0  0
   23.7817   -0.2195   -9.2313 C   0  0  0  0  0  0  0  0  0  0  0  0
   23.5189   -0.1531  -10.6068 O   0  0  0  0  0  0  0  0  0  0  0  0
   22.2434   -0.5049  -11.0404 C   0  0  0  0  0  0  0  0  0  0  0  0
   22.0017   -1.6532  -11.7824 C   0  0  0  0  0  0  0  0  0  0  0  0
   20.7565   -1.9660  -12.1870 N   0  0  0  0  0  0  0  0  0  0  0  0
   19.6760   -1.2198  -11.9173 C   0  0  0  0  0  0  0  0  0  0  0  0
   19.8803   -0.0557  -11.1720 C   0  0  0  0  0  0  0  0  0  0  0  0
   18.8006    0.7166  -10.8862 F   0  0  0  0  0  0  0  0  0  0  0  0
   21.1329    0.2857  -10.7487 C   0  0  0  0  0  0  0  0  0  0  0  0
  1  2  1  6
  2  3  2  0
  2  4  2  0
  2  5  1  1
  5  6  2  0
  6  7  1  0
  7  8  1  0
  7  9  2  0
  9 10  1  0
 10 11  2  0
 11 12  1  0
 12 13  1  0
 13 14  2  0
 14 15  1  0
 15 16  2  0
 16 17  1  0
 17 18  1  0
 17 19  2  0
 11  5  1  0
 19 13  1  0
M  END
$$$$
