_rank12
     RDKit          3D

 19 20  0  0  0  0  0  0  0  0999 V2000
   25.4501    2.9728  -12.1563 C   0  0  0  0  0  0  0  0  0  0  0  0
   26.3186    1.4243  -12.1089 S   0  0  1  0  0  6  0  0  0  0  0  0
   25.7706    0.5732  -13.2144 O   0  0  0  0  0  0  0  0  0  0  0  0
   27.7713    1.6718  -12.4128 O   0  0  0  0  0  0  0  0  0  0  0  0
   26.1276    0.6120  -10.5926 C   0  0  0  0  0  0  0  0  0  0  0  0
   27.2540    0.2931   -9.8678 C   0  0  0  0  0  0  0  0  0  0  0  0
   27.2033   -0.3537   -8.6494 C   0  0  0  0  0  0  0  0  0  0  0  0
   28.4016   -0.6566   -7.9472 N   0  0  0  0  0  0  0  0  0  0  0  0
   25.9639   -0.7051   -8.1180 C   0  0  0  0  0  0  0  0  0  0  0  0
   24.8420   -0.3835   -8.8474 C   0  0  0  0  0  0  0  0  0  0  0  0
   24.8984    0.2665  -10.0714 C   0  0  0  0  0  0  0  0  0  0  0  0
   23.7336    0.5781  -10.7865 O   0  0  0  0  0  0  0  0  0  0  0  0
   22.7374   -0.3922  -10.8566 C   0  0  0  0  0  0  0  0  0  0  0  0
   22.8777   -1.5473  -11.6141 C   0  0  0  0  0  0  0  0  0  0  0  0
   21.8959   -2.4669  -11.6615 N   0  0  0  0  0  0  0  0  0  0  0  0
   20.7343   -2.3513  -11.0025 C   0  0  0  0  0  0  0  0  0  0  0  0
   20.5568   -1.2012  -10.2291 C   0  0  0  0  0  0  0  0  0  0  0  0
   19.3880   -1.0617   -9.5522 F   0  0  0  0  0  0  0  0  0  0  0  0
   21.5363   -0.2521  -10.1630 C   0  0  0  0  0  0  0  0  0  0  0  0
  1  2  1  6
  2  3  2  0
  2  4  2  0
  2  5  1  1
  5  6  2  0
  6  7  1  0
  7  8  1  0
  7  9  2  0
  9 10  1  0
 10 11  2  0
 11 12  1  0
 12 13  1  0
 13 14  2  0
 14 15  1  0
 15 16  2  0
 16 17  1  0
 17 18  1  0
 17 19  2  0
 11  5  1  0
 19 13  1  0
M  END
$$$$
