_rank4
     RDKit          3D

 19 20  0  0  0  0  0  0  0  0999 V2000
   27.7989    0.8280  -12.2338 C   0  0  0  0  0  0  0  0  0  0  0  0
   26.1042    0.3040  -12.1445 S   0  0  1  0  0  6  0  0  0  0  0  0
   25.2743    1.3706  -12.7928 O   0  0  0  0  0  0  0  0  0  0  0  0
   25.9388   -0.9494  -12.9604 O   0  0  0  0  0  0  0  0  0  0  0  0
   25.5785    0.0612  -10.5135 C   0  0  0  0  0  0  0  0  0  0  0  0
   26.4979    0.1924   -9.4969 C   0  0  0  0  0  0  0  0  0  0  0  0
   26.1743    0.0183   -8.1663 C   0  0  0  0  0  0  0  0  0  0  0  0
   27.1679    0.1672   -7.1606 N   0  0  0  0  0  0  0  0  0  0  0  0
   24.8630   -0.3049   -7.8229 C   0  0  0  0  0  0  0  0  0  0  0  0
   23.9490   -0.4346   -8.8436 C   0  0  0  0  0  0  0  0  0  0  0  0
   24.2793   -0.2585  -10.1792 C   0  0  0  0  0  0  0  0  0  0  0  0
   23.3209   -0.3989  -11.1926 O   0  0  0  0  0  0  0  0  0  0  0  0
   21.9908   -0.5507  -10.8098 C   0  0  0  0  0  0  0  0  0  0  0  0
   21.4289   -1.7943  -10.5538 C   0  0  0  0  0  0  0  0  0  0  0  0
   20.1392   -1.9081  -10.1853 N   0  0  0  0  0  0  0  0  0  0  0  0
   19.3115   -0.8639  -10.0381 C   0  0  0  0  0  0  0  0  0  0  0  0
   19.8419    0.4045  -10.2872 C   0  0  0  0  0  0  0  0  0  0  0  0
   19.0225    1.4779  -10.1446 F   0  0  0  0  0  0  0  0  0  0  0  0
   21.1469    0.5490  -10.6625 C   0  0  0  0  0  0  0  0  0  0  0  0
  1  2  1  6
  2  3  2  0
  2  4  2  0
  2  5  1  1
  5  6  2  0
  6  7  1  0
  7  8  1  0
  7  9  2  0
  9 10  1  0
 10 11  2  0
 11 12  1  0
 12 13  1  0
 13 14  2  0
 14 15  1  0
 15 16  2  0
 16 17  1  0
 17 18  1  0
 17 19  2  0
 11  5  1  0
 19 13  1  0
M  END
$$$$
