_rank18
     RDKit          3D

 19 20  0  0  0  0  0  0  0  0999 V2000
   25.2066    1.5569  -10.1647 C   0  0  0  0  0  0  0  0  0  0  0  0
   26.0268    0.0296  -10.5509 S   0  0  1  0  0  6  0  0  0  0  0  0
   26.4041    0.0817  -12.0005 O   0  0  0  0  0  0  0  0  0  0  0  0
   27.3035   -0.0509   -9.7587 O   0  0  0  0  0  0  0  0  0  0  0  0
   25.0207   -1.3474  -10.2551 C   0  0  0  0  0  0  0  0  0  0  0  0
   25.5840   -2.6023  -10.3173 C   0  0  0  0  0  0  0  0  0  0  0  0
   24.8638   -3.7591  -10.0967 C   0  0  0  0  0  0  0  0  0  0  0  0
   25.5012   -5.0273  -10.1748 N   0  0  0  0  0  0  0  0  0  0  0  0
   23.5059   -3.6671   -9.7970 C   0  0  0  0  0  0  0  0  0  0  0  0
   22.9491   -2.4100   -9.7364 C   0  0  0  0  0  0  0  0  0  0  0  0
   23.6773   -1.2506   -9.9589 C   0  0  0  0  0  0  0  0  0  0  0  0
   23.0758    0.0137   -9.8887 O   0  0  0  0  0  0  0  0  0  0  0  0
   21.7348    0.1141  -10.2500 C   0  0  0  0  0  0  0  0  0  0  0  0
   20.9737    1.2421   -9.9740 C   0  0  0  0  0  0  0  0  0  0  0  0
   19.6790    1.3087  -10.3365 N   0  0  0  0  0  0  0  0  0  0  0  0
   19.0326    0.3233  -10.9752 C   0  0  0  0  0  0  0  0  0  0  0  0
   19.7666   -0.8285  -11.2702 C   0  0  0  0  0  0  0  0  0  0  0  0
   19.1331   -1.8406  -11.9169 F   0  0  0  0  0  0  0  0  0  0  0  0
   21.0815   -0.9229  -10.9140 C   0  0  0  0  0  0  0  0  0  0  0  0
  1  2  1  6
  2  3  2  0
  2  4  2  0
  2  5  1  6
  5  6  2  0
  6  7  1  0
  7  8  1  0
  7  9  2  0
  9 10  1  0
 10 11  2  0
 11 12  1  0
 12 13  1  0
 13 14  2  0
 14 15  1  0
 15 16  2  0
 16 17  1  0
 17 18  1  0
 17 19  2  0
 11  5  1  0
 19 13  1  0
M  END
$$$$
