_rank10
     RDKit          3D

 19 20  0  0  0  0  0  0  0  0999 V2000
   26.9466   -1.2426  -13.1547 C   0  0  0  0  0  0  0  0  0  0  0  0
   26.5279    0.2963  -12.3729 S   0  0  1  0  0  6  0  0  0  0  0  0
   27.7315    1.1846  -12.4669 O   0  0  0  0  0  0  0  0  0  0  0  0
   25.4237    0.9546  -13.1548 O   0  0  0  0  0  0  0  0  0  0  0  0
   26.0800    0.0880  -10.7142 C   0  0  0  0  0  0  0  0  0  0  0  0
   27.0760   -0.0507   -9.7736 C   0  0  0  0  0  0  0  0  0  0  0  0
   26.8181   -0.2213   -8.4283 C   0  0  0  0  0  0  0  0  0  0  0  0
   27.8894   -0.3590   -7.5040 N   0  0  0  0  0  0  0  0  0  0  0  0
   25.4960   -0.2566   -7.9891 C   0  0  0  0  0  0  0  0  0  0  0  0
   24.5053   -0.1174   -8.9343 C   0  0  0  0  0  0  0  0  0  0  0  0
   24.7697    0.0538  -10.2851 C   0  0  0  0  0  0  0  0  0  0  0  0
   23.7340    0.1923  -11.2196 O   0  0  0  0  0  0  0  0  0  0  0  0
   22.4547   -0.1966  -10.8311 C   0  0  0  0  0  0  0  0  0  0  0  0
   21.4937    0.7170  -10.4193 C   0  0  0  0  0  0  0  0  0  0  0  0
   20.2652    0.3093  -10.0497 N   0  0  0  0  0  0  0  0  0  0  0  0
   19.8751   -0.9732  -10.0471 C   0  0  0  0  0  0  0  0  0  0  0  0
   20.8160   -1.9220  -10.4556 C   0  0  0  0  0  0  0  0  0  0  0  0
   20.4439   -3.2279  -10.4614 F   0  0  0  0  0  0  0  0  0  0  0  0
   22.0695   -1.5364  -10.8358 C   0  0  0  0  0  0  0  0  0  0  0  0
  1  2  1  6
  2  3  2  0
  2  4  2  0
  2  5  1  1
  5  6  2  0
  6  7  1  0
  7  8  1  0
  7  9  2  0
  9 10  1  0
 10 11  2  0
 11 12  1  0
 12 13  1  0
 13 14  2  0
 14 15  1  0
 15 16  2  0
 16 17  1  0
 17 18  1  0
 17 19  2  0
 11  5  1  0
 19 13  1  0
M  END
$$$$
