_rank16
     RDKit          3D

 29 31  0  0  0  0  0  0  0  0999 V2000
   17.7450    2.0759   -8.9717 N   0  0  0  0  0  0  0  0  0  0  0  0
   18.4500    1.2584   -9.5700 C   0  0  0  0  0  0  0  0  0  0  0  0
   19.2260    0.3310  -10.2220 C   0  0  0  0  0  0  0  0  0  0  0  0
   18.7331   -0.9676  -10.3632 C   0  0  0  0  0  0  0  0  0  0  0  0
   19.4478   -1.9383  -10.9873 C   0  0  0  0  0  0  0  0  0  0  0  0
   18.9377   -3.1968  -11.1084 F   0  0  0  0  0  0  0  0  0  0  0  0
   20.6912   -1.6474  -11.4987 C   0  0  0  0  0  0  0  0  0  0  0  0
   21.2204   -0.3780  -11.3839 C   0  0  0  0  0  0  0  0  0  0  0  0
   22.4767   -0.1360  -11.9149 O   0  0  0  0  0  0  0  0  0  0  0  0
   23.5994   -0.2360  -11.0847 C   0  0  0  0  0  0  0  0  0  0  0  0
   23.5328   -0.8390   -9.8551 C   0  0  0  0  0  0  0  0  0  0  0  0
   24.6545   -0.9202   -9.0659 C   0  0  0  0  0  0  0  0  0  0  0  0
   25.9022   -0.4066   -9.4534 C   0  0  0  0  0  0  0  0  0  0  0  0
   27.2413   -0.5974   -8.3634 S   0  0  2  0  0  6  0  0  0  0  0  0
   27.0942   -1.9338   -7.6335 O   0  0  0  0  0  0  0  0  0  0  0  0
   27.1543    0.4292   -7.2383 O   0  0  0  0  0  0  0  0  0  0  0  0
   28.8265   -0.4386   -9.0758 C   0  0  1  0  0  0  0  0  0  0  0  0
   29.8471   -0.3157   -8.1676 F   0  0  0  0  0  0  0  0  0  0  0  0
   29.0832   -1.4832   -9.9780 F   0  0  0  0  0  0  0  0  0  0  0  0
   28.9116    0.7095   -9.8790 F   0  0  0  0  0  0  0  0  0  0  0  0
   25.9635    0.1932  -10.6753 C   0  0  0  0  0  0  0  0  0  0  0  0
   24.8149    0.2700  -11.4754 C   0  0  0  0  0  0  0  0  0  0  0  0
   25.1444    0.9311  -12.7777 C   0  0  0  0  0  0  0  0  0  0  0  0
   26.6451    0.6832  -12.8796 C   0  0  2  0  0  0  0  0  0  0  0  0
   27.1864    1.6663  -13.6689 F   0  0  0  0  0  0  0  0  0  0  0  0
   26.9420   -0.5529  -13.3749 F   0  0  0  0  0  0  0  0  0  0  0  0
   27.0613    0.8483  -11.4158 C   0  0  1  0  0  0  0  0  0  0  0  0
   27.0708    2.2479  -11.2439 O   0  0  0  0  0  0  0  0  0  0  0  0
   20.4953    0.5977  -10.7535 C   0  0  0  0  0  0  0  0  0  0  0  0
  1  2  3  0
  2  3  1  0
  3  4  2  0
  4  5  1  0
  5  6  1  0
  5  7  2  0
  7  8  1  0
  8  9  1  0
  9 10  1  0
 10 11  2  0
 11 12  1  0
 12 13  2  0
 14 13  1  6
 14 15  2  0
 14 16  2  0
 14 17  1  0
 17 18  1  1
 17 19  1  0
 17 20  1  0
 13 21  1  0
 21 22  2  0
 23 22  1  1
 23 24  1  0
 24 25  1  6
 24 26  1  0
 24 27  1  0
 27 28  1  1
  8 29  2  0
 29  3  1  0
 22 10  1  0
 27 21  1  0
M  END
$$$$
