_rank19
     RDKit          3D

 29 31  0  0  0  0  0  0  0  0999 V2000
   17.7280    1.7463   -8.9336 N   0  0  0  0  0  0  0  0  0  0  0  0
   18.5734    1.0232   -9.4682 C   0  0  0  0  0  0  0  0  0  0  0  0
   19.4970    0.2033  -10.0699 C   0  0  0  0  0  0  0  0  0  0  0  0
   19.2294   -1.1655  -10.1344 C   0  0  0  0  0  0  0  0  0  0  0  0
   20.0996   -2.0367  -10.7055 C   0  0  0  0  0  0  0  0  0  0  0  0
   19.8083   -3.3677  -10.7521 F   0  0  0  0  0  0  0  0  0  0  0  0
   21.2791   -1.5712  -11.2387 C   0  0  0  0  0  0  0  0  0  0  0  0
   21.5876   -0.2266  -11.1991 C   0  0  0  0  0  0  0  0  0  0  0  0
   22.7881    0.1918  -11.7490 O   0  0  0  0  0  0  0  0  0  0  0  0
   23.9843   -0.1128  -11.0887 C   0  0  0  0  0  0  0  0  0  0  0  0
   23.9921   -0.6952   -9.8475 C   0  0  0  0  0  0  0  0  0  0  0  0
   25.1846   -0.9811   -9.2280 C   0  0  0  0  0  0  0  0  0  0  0  0
   26.4334   -0.7036   -9.8059 C   0  0  0  0  0  0  0  0  0  0  0  0
   27.8620   -1.1373   -8.9178 S   0  0  2  0  0  6  0  0  0  0  0  0
   29.0020   -1.3797   -9.9088 O   0  0  0  0  0  0  0  0  0  0  0  0
   27.6765   -2.4988   -8.2553 O   0  0  0  0  0  0  0  0  0  0  0  0
   28.3423   -0.0224   -7.6640 C   0  0  1  0  0  0  0  0  0  0  0  0
   29.4543   -0.4064   -6.9586 F   0  0  0  0  0  0  0  0  0  0  0  0
   28.4974    1.2766   -8.1735 F   0  0  0  0  0  0  0  0  0  0  0  0
   27.3321    0.1273   -6.7008 F   0  0  0  0  0  0  0  0  0  0  0  0
   26.4211   -0.1234  -11.0387 C   0  0  0  0  0  0  0  0  0  0  0  0
   25.2000    0.1631  -11.6649 C   0  0  0  0  0  0  0  0  0  0  0  0
   25.4476    0.7547  -13.0179 C   0  0  0  0  0  0  0  0  0  0  0  0
   26.8469    0.2369  -13.3306 C   0  0  2  0  0  0  0  0  0  0  0  0
   27.4345    1.1056  -14.2152 F   0  0  0  0  0  0  0  0  0  0  0  0
   26.8388   -1.0319  -13.8319 F   0  0  0  0  0  0  0  0  0  0  0  0
   27.4977    0.3211  -11.9476 C   0  0  1  0  0  0  0  0  0  0  0  0
   27.7855    1.6952  -11.8148 O   0  0  0  0  0  0  0  0  0  0  0  0
   20.7061    0.6482  -10.6219 C   0  0  0  0  0  0  0  0  0  0  0  0
  1  2  3  0
  2  3  1  0
  3  4  2  0
  4  5  1  0
  5  6  1  0
  5  7  2  0
  7  8  1  0
  8  9  1  0
  9 10  1  0
 10 11  2  0
 11 12  1  0
 12 13  2  0
 14 13  1  6
 14 15  2  0
 14 16  2  0
 14 17  1  0
 17 18  1  1
 17 19  1  0
 17 20  1  0
 13 21  1  0
 21 22  2  0
 23 22  1  1
 23 24  1  0
 24 25  1  6
 24 26  1  0
 24 27  1  0
 27 28  1  1
  8 29  2  0
 29  3  1  0
 22 10  1  0
 27 21  1  0
M  END
$$$$
