_rank17
     RDKit          3D

 29 31  0  0  0  0  0  0  0  0999 V2000
   18.0534    2.1075   -8.8155 N   0  0  0  0  0  0  0  0  0  0  0  0
   18.7058    1.2558   -9.4258 C   0  0  0  0  0  0  0  0  0  0  0  0
   19.4437    0.3026  -10.0848 C   0  0  0  0  0  0  0  0  0  0  0  0
   18.9426   -0.9989  -10.1503 C   0  0  0  0  0  0  0  0  0  0  0  0
   19.6208   -1.9941  -10.7764 C   0  0  0  0  0  0  0  0  0  0  0  0
   19.1037   -3.2547  -10.8223 F   0  0  0  0  0  0  0  0  0  0  0  0
   20.8343   -1.7259  -11.3662 C   0  0  0  0  0  0  0  0  0  0  0  0
   21.3702   -0.4547  -11.3280 C   0  0  0  0  0  0  0  0  0  0  0  0
   22.5954   -0.2363  -11.9361 O   0  0  0  0  0  0  0  0  0  0  0  0
   23.7510   -0.1937  -11.1473 C   0  0  0  0  0  0  0  0  0  0  0  0
   23.7289   -0.5393   -9.8207 C   0  0  0  0  0  0  0  0  0  0  0  0
   24.8821   -0.4864   -9.0756 C   0  0  0  0  0  0  0  0  0  0  0  0
   26.1187   -0.0867   -9.6061 C   0  0  0  0  0  0  0  0  0  0  0  0
   27.5005   -0.0862   -8.5532 S   0  0  2  0  0  6  0  0  0  0  0  0
   27.0611    0.3862   -7.1661 O   0  0  0  0  0  0  0  0  0  0  0  0
   28.4949    0.9847   -8.9907 O   0  0  0  0  0  0  0  0  0  0  0  0
   28.3810   -1.5899   -8.4581 C   0  0  1  0  0  0  0  0  0  0  0  0
   29.3947   -1.5965   -7.5340 F   0  0  0  0  0  0  0  0  0  0  0  0
   27.5120   -2.6737   -8.2547 F   0  0  0  0  0  0  0  0  0  0  0  0
   28.9989   -1.8969   -9.6807 F   0  0  0  0  0  0  0  0  0  0  0  0
   26.1358    0.2574  -10.9244 C   0  0  0  0  0  0  0  0  0  0  0  0
   24.9553    0.1987  -11.6782 C   0  0  0  0  0  0  0  0  0  0  0  0
   25.2377    0.5812  -13.0979 C   0  0  0  0  0  0  0  0  0  0  0  0
   26.7293    0.2859  -13.2071 C   0  0  2  0  0  0  0  0  0  0  0  0
   27.2494    1.0811  -14.1968 F   0  0  0  0  0  0  0  0  0  0  0  0
   26.9884   -1.0299  -13.4578 F   0  0  0  0  0  0  0  0  0  0  0  0
   27.2097    0.7290  -11.8229 C   0  0  1  0  0  0  0  0  0  0  0  0
   27.2449    2.1343  -11.9334 O   0  0  0  0  0  0  0  0  0  0  0  0
   20.6818    0.5458  -10.6951 C   0  0  0  0  0  0  0  0  0  0  0  0
  1  2  3  0
  2  3  1  0
  3  4  2  0
  4  5  1  0
  5  6  1  0
  5  7  2  0
  7  8  1  0
  8  9  1  0
  9 10  1  0
 10 11  2  0
 11 12  1  0
 12 13  2  0
 14 13  1  6
 14 15  2  0
 14 16  2  0
 14 17  1  0
 17 18  1  1
 17 19  1  0
 17 20  1  0
 13 21  1  0
 21 22  2  0
 23 22  1  1
 23 24  1  0
 24 25  1  6
 24 26  1  0
 24 27  1  0
 27 28  1  6
  8 29  2  0
 29  3  1  0
 22 10  1  0
 27 21  1  0
M  END
$$$$
