_rank4
     RDKit          3D

 29 31  0  0  0  0  0  0  0  0999 V2000
   18.3664   -4.1065  -10.8110 N   0  0  0  0  0  0  0  0  0  0  0  0
   18.8918   -2.9916  -10.7442 C   0  0  0  0  0  0  0  0  0  0  0  0
   19.4619   -1.7430  -10.6872 C   0  0  0  0  0  0  0  0  0  0  0  0
   18.7648   -0.7223  -10.0378 C   0  0  0  0  0  0  0  0  0  0  0  0
   19.2617    0.5377   -9.9504 C   0  0  0  0  0  0  0  0  0  0  0  0
   18.5555    1.5119   -9.3094 F   0  0  0  0  0  0  0  0  0  0  0  0
   20.4832    0.8293  -10.5118 C   0  0  0  0  0  0  0  0  0  0  0  0
   21.2095   -0.1464  -11.1637 C   0  0  0  0  0  0  0  0  0  0  0  0
   22.4337    0.1980  -11.7128 O   0  0  0  0  0  0  0  0  0  0  0  0
   23.6068   -0.1176  -11.0172 C   0  0  0  0  0  0  0  0  0  0  0  0
   23.5740   -0.7635   -9.8082 C   0  0  0  0  0  0  0  0  0  0  0  0
   24.7448   -1.0584   -9.1526 C   0  0  0  0  0  0  0  0  0  0  0  0
   26.0110   -0.7275   -9.6604 C   0  0  0  0  0  0  0  0  0  0  0  0
   27.4093   -1.1795   -8.7340 S   0  0  2  0  0  6  0  0  0  0  0  0
   28.2052   -2.2213   -9.5224 O   0  0  0  0  0  0  0  0  0  0  0  0
   26.9866   -1.9361   -7.4786 O   0  0  0  0  0  0  0  0  0  0  0  0
   28.4320    0.1360   -8.2153 C   0  0  1  0  0  0  0  0  0  0  0  0
   29.4793   -0.2415   -7.4138 F   0  0  0  0  0  0  0  0  0  0  0  0
   28.8864    0.8867   -9.3112 F   0  0  0  0  0  0  0  0  0  0  0  0
   27.7118    1.0735   -7.4583 F   0  0  0  0  0  0  0  0  0  0  0  0
   26.0389   -0.0844  -10.8613 C   0  0  0  0  0  0  0  0  0  0  0  0
   24.8398    0.2110  -11.5249 C   0  0  0  0  0  0  0  0  0  0  0  0
   25.1324    0.8766  -12.8337 C   0  0  0  0  0  0  0  0  0  0  0  0
   26.5544    0.4025  -13.1110 C   0  0  2  0  0  0  0  0  0  0  0  0
   27.1606    1.3270  -13.9235 F   0  0  0  0  0  0  0  0  0  0  0  0
   26.5947   -0.8385  -13.6764 F   0  0  0  0  0  0  0  0  0  0  0  0
   27.1436    0.4272  -11.6984 C   0  0  1  0  0  0  0  0  0  0  0  0
   27.3962    1.7977  -11.4831 O   0  0  0  0  0  0  0  0  0  0  0  0
   20.7038   -1.4162  -11.2489 C   0  0  0  0  0  0  0  0  0  0  0  0
  1  2  3  0
  2  3  1  0
  3  4  2  0
  4  5  1  0
  5  6  1  0
  5  7  2  0
  7  8  1  0
  8  9  1  0
  9 10  1  0
 10 11  2  0
 11 12  1  0
 12 13  2  0
 14 13  1  6
 14 15  2  0
 14 16  2  0
 14 17  1  0
 17 18  1  1
 17 19  1  0
 17 20  1  0
 13 21  1  0
 21 22  2  0
 23 22  1  1
 23 24  1  0
 24 25  1  6
 24 26  1  0
 24 27  1  0
 27 28  1  1
  8 29  2  0
 29  3  1  0
 22 10  1  0
 27 21  1  0
M  END
$$$$
