_rank20
     RDKit          3D

 29 31  0  0  0  0  0  0  0  0999 V2000
   17.5542    1.8276   -9.0330 N   0  0  0  0  0  0  0  0  0  0  0  0
   18.4236    1.1384   -9.5739 C   0  0  0  0  0  0  0  0  0  0  0  0
   19.4055    0.3905  -10.1770 C   0  0  0  0  0  0  0  0  0  0  0  0
   19.1981   -0.9819  -10.3284 C   0  0  0  0  0  0  0  0  0  0  0  0
   20.1276   -1.7847  -10.9062 C   0  0  0  0  0  0  0  0  0  0  0  0
   19.8942   -3.1214  -11.0387 F   0  0  0  0  0  0  0  0  0  0  0  0
   21.3087   -1.2440  -11.3590 C   0  0  0  0  0  0  0  0  0  0  0  0
   21.5590    0.1072  -11.2319 C   0  0  0  0  0  0  0  0  0  0  0  0
   22.7637    0.6026  -11.7030 O   0  0  0  0  0  0  0  0  0  0  0  0
   23.9511    0.2366  -11.0584 C   0  0  0  0  0  0  0  0  0  0  0  0
   23.9466   -0.3220   -9.8062 C   0  0  0  0  0  0  0  0  0  0  0  0
   25.1308   -0.6698   -9.2027 C   0  0  0  0  0  0  0  0  0  0  0  0
   26.3831   -0.4813   -9.8081 C   0  0  0  0  0  0  0  0  0  0  0  0
   27.7989   -0.9864   -8.9373 S   0  0  2  0  0  6  0  0  0  0  0  0
   28.9147   -1.2803   -9.9418 O   0  0  0  0  0  0  0  0  0  0  0  0
   27.5552   -2.3395   -8.2765 O   0  0  0  0  0  0  0  0  0  0  0  0
   28.3463    0.1000   -7.6861 C   0  0  1  0  0  0  0  0  0  0  0  0
   29.2461    1.0452   -8.1089 F   0  0  0  0  0  0  0  0  0  0  0  0
   27.2621    0.7012   -7.0273 F   0  0  0  0  0  0  0  0  0  0  0  0
   29.0028   -0.5957   -6.6585 F   0  0  0  0  0  0  0  0  0  0  0  0
   26.3831    0.0756  -11.0518 C   0  0  0  0  0  0  0  0  0  0  0  0
   25.1703    0.4257  -11.6616 C   0  0  0  0  0  0  0  0  0  0  0  0
   25.4282    0.9755  -13.0302 C   0  0  0  0  0  0  0  0  0  0  0  0
   26.7866    0.3660  -13.3576 C   0  0  2  0  0  0  0  0  0  0  0  0
   27.4097    1.1799  -14.2695 F   0  0  0  0  0  0  0  0  0  0  0  0
   26.6905   -0.9090  -13.8335 F   0  0  0  0  0  0  0  0  0  0  0  0
   27.4676    0.4353  -11.9884 C   0  0  1  0  0  0  0  0  0  0  0  0
   27.8422    1.7910  -11.8879 O   0  0  0  0  0  0  0  0  0  0  0  0
   20.6178    0.9128  -10.6483 C   0  0  0  0  0  0  0  0  0  0  0  0
  1  2  3  0
  2  3  1  0
  3  4  2  0
  4  5  1  0
  5  6  1  0
  5  7  2  0
  7  8  1  0
  8  9  1  0
  9 10  1  0
 10 11  2  0
 11 12  1  0
 12 13  2  0
 14 13  1  6
 14 15  2  0
 14 16  2  0
 14 17  1  0
 17 18  1  6
 17 19  1  0
 17 20  1  0
 13 21  1  0
 21 22  2  0
 23 22  1  1
 23 24  1  0
 24 25  1  6
 24 26  1  0
 24 27  1  0
 27 28  1  1
  8 29  2  0
 29  3  1  0
 22 10  1  0
 27 21  1  0
M  END
$$$$
