_rank3
     RDKit          3D

 29 31  0  0  0  0  0  0  0  0999 V2000
   18.4768   -4.1044  -10.4214 N   0  0  0  0  0  0  0  0  0  0  0  0
   18.9336   -2.9590  -10.4741 C   0  0  0  0  0  0  0  0  0  0  0  0
   19.4212   -1.6756  -10.5244 C   0  0  0  0  0  0  0  0  0  0  0  0
   18.6306   -0.6431  -10.0162 C   0  0  0  0  0  0  0  0  0  0  0  0
   19.0430    0.6498  -10.0407 C   0  0  0  0  0  0  0  0  0  0  0  0
   18.2466    1.6347   -9.5363 F   0  0  0  0  0  0  0  0  0  0  0  0
   20.2702    0.9639  -10.5770 C   0  0  0  0  0  0  0  0  0  0  0  0
   21.0873   -0.0223  -11.0911 C   0  0  0  0  0  0  0  0  0  0  0  0
   22.3132    0.3457  -11.6207 O   0  0  0  0  0  0  0  0  0  0  0  0
   23.4836    0.0078  -10.9312 C   0  0  0  0  0  0  0  0  0  0  0  0
   23.4453   -0.6534   -9.7307 C   0  0  0  0  0  0  0  0  0  0  0  0
   24.6137   -0.9701   -9.0808 C   0  0  0  0  0  0  0  0  0  0  0  0
   25.8828   -0.6468   -9.5862 C   0  0  0  0  0  0  0  0  0  0  0  0
   27.2772   -1.1266   -8.6680 S   0  0  2  0  0  6  0  0  0  0  0  0
   28.1562   -2.0233   -9.5420 O   0  0  0  0  0  0  0  0  0  0  0  0
   26.8628   -2.0474   -7.5245 O   0  0  0  0  0  0  0  0  0  0  0  0
   28.2047    0.1732   -7.9642 C   0  0  1  0  0  0  0  0  0  0  0  0
   29.3037   -0.2348   -7.2518 F   0  0  0  0  0  0  0  0  0  0  0  0
   28.5622    1.1233   -8.9340 F   0  0  0  0  0  0  0  0  0  0  0  0
   27.4343    0.9148   -7.0547 F   0  0  0  0  0  0  0  0  0  0  0  0
   25.9162    0.0116  -10.7787 C   0  0  0  0  0  0  0  0  0  0  0  0
   24.7196    0.3291  -11.4364 C   0  0  0  0  0  0  0  0  0  0  0  0
   25.0177    1.0085  -12.7369 C   0  0  0  0  0  0  0  0  0  0  0  0
   26.4339    0.5221  -13.0226 C   0  0  2  0  0  0  0  0  0  0  0  0
   27.0494    1.4503  -13.8239 F   0  0  0  0  0  0  0  0  0  0  0  0
   26.4594   -0.7118  -13.6043 F   0  0  0  0  0  0  0  0  0  0  0  0
   27.0254    0.5216  -11.6108 C   0  0  1  0  0  0  0  0  0  0  0  0
   27.2938    1.8862  -11.3780 O   0  0  0  0  0  0  0  0  0  0  0  0
   20.6665   -1.3252  -11.0639 C   0  0  0  0  0  0  0  0  0  0  0  0
  1  2  3  0
  2  3  1  0
  3  4  2  0
  4  5  1  0
  5  6  1  0
  5  7  2  0
  7  8  1  0
  8  9  1  0
  9 10  1  0
 10 11  2  0
 11 12  1  0
 12 13  2  0
 14 13  1  6
 14 15  2  0
 14 16  2  0
 14 17  1  0
 17 18  1  1
 17 19  1  0
 17 20  1  0
 13 21  1  0
 21 22  2  0
 23 22  1  1
 23 24  1  0
 24 25  1  6
 24 26  1  0
 24 27  1  0
 27 28  1  1
  8 29  2  0
 29  3  1  0
 22 10  1  0
 27 21  1  0
M  END
$$$$
