_rank2
     RDKit          3D

 29 31  0  0  0  0  0  0  0  0999 V2000
   17.7076    1.9067   -8.6096 N   0  0  0  0  0  0  0  0  0  0  0  0
   18.4537    1.1763   -9.2678 C   0  0  0  0  0  0  0  0  0  0  0  0
   19.2757    0.3442   -9.9884 C   0  0  0  0  0  0  0  0  0  0  0  0
   18.8626   -0.9711  -10.2093 C   0  0  0  0  0  0  0  0  0  0  0  0
   19.6266   -1.8518  -10.9042 C   0  0  0  0  0  0  0  0  0  0  0  0
   19.1942   -3.1296  -11.1021 F   0  0  0  0  0  0  0  0  0  0  0  0
   20.8413   -1.4502  -11.4095 C   0  0  0  0  0  0  0  0  0  0  0  0
   21.2921   -0.1600  -11.2173 C   0  0  0  0  0  0  0  0  0  0  0  0
   22.5224    0.1949  -11.7455 O   0  0  0  0  0  0  0  0  0  0  0  0
   23.6824   -0.0589  -11.0042 C   0  0  0  0  0  0  0  0  0  0  0  0
   23.6308   -0.6519   -9.7690 C   0  0  0  0  0  0  0  0  0  0  0  0
   24.7891   -0.8869   -9.0686 C   0  0  0  0  0  0  0  0  0  0  0  0
   26.0608   -0.5454   -9.5551 C   0  0  0  0  0  0  0  0  0  0  0  0
   27.4425   -0.9194   -8.5710 S   0  0  2  0  0  6  0  0  0  0  0  0
   28.3817   -1.8274   -9.3673 O   0  0  0  0  0  0  0  0  0  0  0  0
   27.0270   -1.7920   -7.3906 O   0  0  0  0  0  0  0  0  0  0  0  0
   28.2981    0.4522   -7.9136 C   0  0  1  0  0  0  0  0  0  0  0  0
   27.4921    1.4003   -7.3365 F   0  0  0  0  0  0  0  0  0  0  0  0
   29.3042    0.0428   -7.0242 F   0  0  0  0  0  0  0  0  0  0  0  0
   29.0090    1.1359   -8.9125 F   0  0  0  0  0  0  0  0  0  0  0  0
   26.1074    0.0451  -10.7823 C   0  0  0  0  0  0  0  0  0  0  0  0
   24.9210    0.2794  -11.4914 C   0  0  0  0  0  0  0  0  0  0  0  0
   25.2346    0.8946  -12.8200 C   0  0  0  0  0  0  0  0  0  0  0  0
   26.6755    0.4464  -13.0362 C   0  0  2  0  0  0  0  0  0  0  0  0
   27.2817    1.3501  -13.8718 F   0  0  0  0  0  0  0  0  0  0  0  0
   26.7633   -0.8167  -13.5444 F   0  0  0  0  0  0  0  0  0  0  0  0
   27.2228    0.5484  -11.6102 C   0  0  1  0  0  0  0  0  0  0  0  0
   27.4346    1.9331  -11.4492 O   0  0  0  0  0  0  0  0  0  0  0  0
   20.5174    0.7247  -10.5157 C   0  0  0  0  0  0  0  0  0  0  0  0
  1  2  3  0
  2  3  1  0
  3  4  2  0
  4  5  1  0
  5  6  1  0
  5  7  2  0
  7  8  1  0
  8  9  1  0
  9 10  1  0
 10 11  2  0
 11 12  1  0
 12 13  2  0
 14 13  1  6
 14 15  2  0
 14 16  2  0
 14 17  1  0
 17 18  1  1
 17 19  1  0
 17 20  1  0
 13 21  1  0
 21 22  2  0
 23 22  1  1
 23 24  1  0
 24 25  1  6
 24 26  1  0
 24 27  1  0
 27 28  1  1
  8 29  2  0
 29  3  1  0
 22 10  1  0
 27 21  1  0
M  END
$$$$
