_rank18
     RDKit          3D

 29 31  0  0  0  0  0  0  0  0999 V2000
   17.9595   -4.4143  -10.8172 N   0  0  0  0  0  0  0  0  0  0  0  0
   18.5787   -3.3529  -10.7008 C   0  0  0  0  0  0  0  0  0  0  0  0
   19.2644   -2.1672  -10.5948 C   0  0  0  0  0  0  0  0  0  0  0  0
   18.7121   -1.1464   -9.8188 C   0  0  0  0  0  0  0  0  0  0  0  0
   19.3283    0.0546   -9.6760 C   0  0  0  0  0  0  0  0  0  0  0  0
   18.7620    1.0308   -8.9112 F   0  0  0  0  0  0  0  0  0  0  0  0
   20.5291    0.2840  -10.3067 C   0  0  0  0  0  0  0  0  0  0  0  0
   21.1145   -0.6947  -11.0840 C   0  0  0  0  0  0  0  0  0  0  0  0
   22.3236   -0.4141  -11.6987 O   0  0  0  0  0  0  0  0  0  0  0  0
   23.5094   -0.5543  -10.9682 C   0  0  0  0  0  0  0  0  0  0  0  0
   23.5179   -1.0948   -9.7082 C   0  0  0  0  0  0  0  0  0  0  0  0
   24.7002   -1.2182   -9.0193 C   0  0  0  0  0  0  0  0  0  0  0  0
   25.9374   -0.8110   -9.5427 C   0  0  0  0  0  0  0  0  0  0  0  0
   27.3565   -1.0451   -8.5684 S   0  0  2  0  0  6  0  0  0  0  0  0
   28.3939   -1.8145   -9.3883 O   0  0  0  0  0  0  0  0  0  0  0  0
   27.0503   -1.9912   -7.4116 O   0  0  0  0  0  0  0  0  0  0  0  0
   28.0461    0.4003   -7.8749 C   0  0  1  0  0  0  0  0  0  0  0  0
   29.3121    0.2400   -7.3717 F   0  0  0  0  0  0  0  0  0  0  0  0
   28.0011    1.4694   -8.7837 F   0  0  0  0  0  0  0  0  0  0  0  0
   27.2790    0.8630   -6.7941 F   0  0  0  0  0  0  0  0  0  0  0  0
   25.9243   -0.2730  -10.7945 C   0  0  0  0  0  0  0  0  0  0  0  0
   24.7139   -0.1526  -11.4916 C   0  0  0  0  0  0  0  0  0  0  0  0
   24.9638    0.4241  -12.8505 C   0  0  0  0  0  0  0  0  0  0  0  0
   26.4292    0.0678  -13.0733 C   0  0  2  0  0  0  0  0  0  0  0  0
   26.9580    0.9739  -13.9574 F   0  0  0  0  0  0  0  0  0  0  0  0
   26.5975   -1.2072  -13.5287 F   0  0  0  0  0  0  0  0  0  0  0  0
   26.9892    0.2697  -11.6630 C   0  0  1  0  0  0  0  0  0  0  0  0
   27.1059    1.6715  -11.5649 O   0  0  0  0  0  0  0  0  0  0  0  0
   20.4887   -1.9046  -11.2247 C   0  0  0  0  0  0  0  0  0  0  0  0
  1  2  3  0
  2  3  1  0
  3  4  2  0
  4  5  1  0
  5  6  1  0
  5  7  2  0
  7  8  1  0
  8  9  1  0
  9 10  1  0
 10 11  2  0
 11 12  1  0
 12 13  2  0
 14 13  1  6
 14 15  2  0
 14 16  2  0
 14 17  1  0
 17 18  1  1
 17 19  1  0
 17 20  1  0
 13 21  1  0
 21 22  2  0
 23 22  1  1
 23 24  1  0
 24 25  1  6
 24 26  1  0
 24 27  1  0
 27 28  1  1
  8 29  2  0
 29  3  1  0
 22 10  1  0
 27 21  1  0
M  END
$$$$
