_rank11
     RDKit          3D

 29 31  0  0  0  0  0  0  0  0999 V2000
   18.3352    2.1669   -8.4207 N   0  0  0  0  0  0  0  0  0  0  0  0
   18.8674    1.2535   -9.0578 C   0  0  0  0  0  0  0  0  0  0  0  0
   19.4502    0.2456   -9.7871 C   0  0  0  0  0  0  0  0  0  0  0  0
   18.7493   -0.9515   -9.9459 C   0  0  0  0  0  0  0  0  0  0  0  0
   19.2662   -1.9936  -10.6453 C   0  0  0  0  0  0  0  0  0  0  0  0
   18.5559   -3.1494  -10.7815 F   0  0  0  0  0  0  0  0  0  0  0  0
   20.5117   -1.8797  -11.2178 C   0  0  0  0  0  0  0  0  0  0  0  0
   21.2423   -0.7160  -11.0886 C   0  0  0  0  0  0  0  0  0  0  0  0
   22.4918   -0.6515  -11.6831 O   0  0  0  0  0  0  0  0  0  0  0  0
   23.6193   -0.4400  -10.8810 C   0  0  0  0  0  0  0  0  0  0  0  0
   23.6194   -0.7492   -9.5452 C   0  0  0  0  0  0  0  0  0  0  0  0
   24.7439   -0.5290   -8.7871 C   0  0  0  0  0  0  0  0  0  0  0  0
   25.9282    0.0108   -9.3129 C   0  0  0  0  0  0  0  0  0  0  0  0
   27.2810    0.2167   -8.2427 S   0  0  2  0  0  6  0  0  0  0  0  0
   26.7600    0.6408   -6.8682 O   0  0  0  0  0  0  0  0  0  0  0  0
   28.1233    1.4099   -8.6830 O   0  0  0  0  0  0  0  0  0  0  0  0
   28.3603   -1.1486   -8.1147 C   0  0  1  0  0  0  0  0  0  0  0  0
   27.8969   -2.1657   -7.3192 F   0  0  0  0  0  0  0  0  0  0  0  0
   28.7202   -1.6305   -9.3832 F   0  0  0  0  0  0  0  0  0  0  0  0
   29.5903   -0.7749   -7.5506 F   0  0  0  0  0  0  0  0  0  0  0  0
   25.9232    0.3181  -10.6404 C   0  0  0  0  0  0  0  0  0  0  0  0
   24.7724    0.0884  -11.4074 C   0  0  0  0  0  0  0  0  0  0  0  0
   25.0274    0.4649  -12.8339 C   0  0  0  0  0  0  0  0  0  0  0  0
   26.5460    0.3598  -12.9151 C   0  0  2  0  0  0  0  0  0  0  0  0
   26.9769    1.1876  -13.9208 F   0  0  0  0  0  0  0  0  0  0  0  0
   26.9748   -0.9185  -13.1238 F   0  0  0  0  0  0  0  0  0  0  0  0
   26.9430    0.8984  -11.5383 C   0  0  1  0  0  0  0  0  0  0  0  0
   26.8008    2.2931  -11.6894 O   0  0  0  0  0  0  0  0  0  0  0  0
   20.7163    0.3325  -10.3820 C   0  0  0  0  0  0  0  0  0  0  0  0
  1  2  3  0
  2  3  1  0
  3  4  2  0
  4  5  1  0
  5  6  1  0
  5  7  2  0
  7  8  1  0
  8  9  1  0
  9 10  1  0
 10 11  2  0
 11 12  1  0
 12 13  2  0
 14 13  1  6
 14 15  2  0
 14 16  2  0
 14 17  1  0
 17 18  1  1
 17 19  1  0
 17 20  1  0
 13 21  1  0
 21 22  2  0
 23 22  1  1
 23 24  1  0
 24 25  1  6
 24 26  1  0
 24 27  1  0
 27 28  1  6
  8 29  2  0
 29  3  1  0
 22 10  1  0
 27 21  1  0
M  END
$$$$
