_rank6
     RDKit          3D

 29 31  0  0  0  0  0  0  0  0999 V2000
   18.2765    2.3295   -8.5194 N   0  0  0  0  0  0  0  0  0  0  0  0
   18.8009    1.4563   -9.2164 C   0  0  0  0  0  0  0  0  0  0  0  0
   19.4063    0.4936   -9.9872 C   0  0  0  0  0  0  0  0  0  0  0  0
   18.7608   -0.7341  -10.1467 C   0  0  0  0  0  0  0  0  0  0  0  0
   19.3031   -1.7348  -10.8861 C   0  0  0  0  0  0  0  0  0  0  0  0
   18.6470   -2.9221  -11.0218 F   0  0  0  0  0  0  0  0  0  0  0  0
   20.5198   -1.5467  -11.4998 C   0  0  0  0  0  0  0  0  0  0  0  0
   21.1956   -0.3503  -11.3716 C   0  0  0  0  0  0  0  0  0  0  0  0
   22.4178   -0.2109  -12.0085 O   0  0  0  0  0  0  0  0  0  0  0  0
   23.5946   -0.3190  -11.2583 C   0  0  0  0  0  0  0  0  0  0  0  0
   23.6059   -0.9057  -10.0191 C   0  0  0  0  0  0  0  0  0  0  0  0
   24.7792   -0.9955   -9.3099 C   0  0  0  0  0  0  0  0  0  0  0  0
   26.0040   -0.5071   -9.7912 C   0  0  0  0  0  0  0  0  0  0  0  0
   27.4138   -0.7063   -8.7959 S   0  0  2  0  0  6  0  0  0  0  0  0
   28.6055   -1.0443   -9.6938 O   0  0  0  0  0  0  0  0  0  0  0  0
   27.2692   -1.9479   -7.9214 O   0  0  0  0  0  0  0  0  0  0  0  0
   27.7838    0.6259   -7.7312 C   0  0  1  0  0  0  0  0  0  0  0  0
   28.5934    0.2989   -6.6732 F   0  0  0  0  0  0  0  0  0  0  0  0
   28.3097    1.7142   -8.4454 F   0  0  0  0  0  0  0  0  0  0  0  0
   26.6193    1.1532   -7.1509 F   0  0  0  0  0  0  0  0  0  0  0  0
   25.9881    0.0766  -11.0223 C   0  0  0  0  0  0  0  0  0  0  0  0
   24.7871    0.1623  -11.7404 C   0  0  0  0  0  0  0  0  0  0  0  0
   25.0339    0.8019  -13.0715 C   0  0  0  0  0  0  0  0  0  0  0  0
   26.5196    0.5283  -13.2756 C   0  0  2  0  0  0  0  0  0  0  0  0
   27.0188    1.4927  -14.1142 F   0  0  0  0  0  0  0  0  0  0  0  0
   26.7617   -0.7184  -13.7740 F   0  0  0  0  0  0  0  0  0  0  0  0
   27.0408    0.7046  -11.8471 C   0  0  1  0  0  0  0  0  0  0  0  0
   27.0839    2.1058  -11.6950 O   0  0  0  0  0  0  0  0  0  0  0  0
   20.6440    0.6562  -10.6246 C   0  0  0  0  0  0  0  0  0  0  0  0
  1  2  3  0
  2  3  1  0
  3  4  2  0
  4  5  1  0
  5  6  1  0
  5  7  2  0
  7  8  1  0
  8  9  1  0
  9 10  1  0
 10 11  2  0
 11 12  1  0
 12 13  2  0
 14 13  1  6
 14 15  2  0
 14 16  2  0
 14 17  1  0
 17 18  1  1
 17 19  1  0
 17 20  1  0
 13 21  1  0
 21 22  2  0
 23 22  1  1
 23 24  1  0
 24 25  1  6
 24 26  1  0
 24 27  1  0
 27 28  1  1
  8 29  2  0
 29  3  1  0
 22 10  1  0
 27 21  1  0
M  END
$$$$
