_rank12
     RDKit          3D

 29 31  0  0  0  0  0  0  0  0999 V2000
   17.9154   -3.8246  -10.1221 N   0  0  0  0  0  0  0  0  0  0  0  0
   18.5819   -2.7915  -10.2313 C   0  0  0  0  0  0  0  0  0  0  0  0
   19.3399   -1.6537  -10.3661 C   0  0  0  0  0  0  0  0  0  0  0  0
   18.8966   -0.4821   -9.7494 C   0  0  0  0  0  0  0  0  0  0  0  0
   19.5885    0.6816   -9.8471 C   0  0  0  0  0  0  0  0  0  0  0  0
   19.1282    1.8083   -9.2330 F   0  0  0  0  0  0  0  0  0  0  0  0
   20.7586    0.7205  -10.5693 C   0  0  0  0  0  0  0  0  0  0  0  0
   21.2371   -0.4120  -11.1963 C   0  0  0  0  0  0  0  0  0  0  0  0
   22.4196   -0.3207  -11.9120 O   0  0  0  0  0  0  0  0  0  0  0  0
   23.6328   -0.2404  -11.2183 C   0  0  0  0  0  0  0  0  0  0  0  0
   23.7387   -0.6295   -9.9079 C   0  0  0  0  0  0  0  0  0  0  0  0
   24.9453   -0.5376   -9.2572 C   0  0  0  0  0  0  0  0  0  0  0  0
   26.1113   -0.0537   -9.8710 C   0  0  0  0  0  0  0  0  0  0  0  0
   27.5737   -0.0115   -8.9342 S   0  0  2  0  0  6  0  0  0  0  0  0
   27.8271    1.4283   -8.4835 O   0  0  0  0  0  0  0  0  0  0  0  0
   28.7759   -0.3190   -9.8215 O   0  0  0  0  0  0  0  0  0  0  0  0
   27.6411   -1.1162   -7.5849 C   0  0  1  0  0  0  0  0  0  0  0  0
   27.1437   -0.6094   -6.4113 F   0  0  0  0  0  0  0  0  0  0  0  0
   27.0285   -2.3393   -7.9006 F   0  0  0  0  0  0  0  0  0  0  0  0
   28.9640   -1.4838   -7.2928 F   0  0  0  0  0  0  0  0  0  0  0  0
   26.0012    0.3334  -11.1728 C   0  0  0  0  0  0  0  0  0  0  0  0
   24.7669    0.2344  -11.8302 C   0  0  0  0  0  0  0  0  0  0  0  0
   24.9105    0.6776  -13.2531 C   0  0  0  0  0  0  0  0  0  0  0  0
   26.4012    0.4683  -13.4935 C   0  0  2  0  0  0  0  0  0  0  0  0
   26.7954    1.3225  -14.4922 F   0  0  0  0  0  0  0  0  0  0  0  0
   26.7068   -0.8225  -13.8126 F   0  0  0  0  0  0  0  0  0  0  0  0
   26.9709    0.8920  -12.1374 C   0  0  1  0  0  0  0  0  0  0  0  0
   26.9238    2.3000  -12.1986 O   0  0  0  0  0  0  0  0  0  0  0  0
   20.5354   -1.5836  -11.0945 C   0  0  0  0  0  0  0  0  0  0  0  0
  1  2  3  0
  2  3  1  0
  3  4  2  0
  4  5  1  0
  5  6  1  0
  5  7  2  0
  7  8  1  0
  8  9  1  0
  9 10  1  0
 10 11  2  0
 11 12  1  0
 12 13  2  0
 14 13  1  6
 14 15  2  0
 14 16  2  0
 14 17  1  0
 17 18  1  1
 17 19  1  0
 17 20  1  0
 13 21  1  0
 21 22  2  0
 23 22  1  1
 23 24  1  0
 24 25  1  6
 24 26  1  0
 24 27  1  0
 27 28  1  6
  8 29  2  0
 29  3  1  0
 22 10  1  0
 27 21  1  0
M  END
$$$$
