_rank15
     RDKit          3D

 29 31  0  0  0  0  0  0  0  0999 V2000
   18.2529    2.0060   -8.6210 N   0  0  0  0  0  0  0  0  0  0  0  0
   18.8577    1.1413   -9.2612 C   0  0  0  0  0  0  0  0  0  0  0  0
   19.5108    0.1742   -9.9861 C   0  0  0  0  0  0  0  0  0  0  0  0
   18.8929   -1.0675  -10.1472 C   0  0  0  0  0  0  0  0  0  0  0  0
   19.4823   -2.0731  -10.8426 C   0  0  0  0  0  0  0  0  0  0  0  0
   18.8521   -3.2741  -10.9812 F   0  0  0  0  0  0  0  0  0  0  0  0
   20.7205   -1.8761  -11.4087 C   0  0  0  0  0  0  0  0  0  0  0  0
   21.3705   -0.6658  -11.2770 C   0  0  0  0  0  0  0  0  0  0  0  0
   22.6159   -0.5180  -11.8650 O   0  0  0  0  0  0  0  0  0  0  0  0
   23.7460   -0.3950  -11.0482 C   0  0  0  0  0  0  0  0  0  0  0  0
   23.7265   -0.7772   -9.7316 C   0  0  0  0  0  0  0  0  0  0  0  0
   24.8543   -0.6430   -8.9584 C   0  0  0  0  0  0  0  0  0  0  0  0
   26.0615   -0.1215   -9.4492 C   0  0  0  0  0  0  0  0  0  0  0  0
   27.4150   -0.0277   -8.3643 S   0  0  2  0  0  6  0  0  0  0  0  0
   26.9231    0.4805   -7.0078 O   0  0  0  0  0  0  0  0  0  0  0  0
   28.3797    1.0629   -8.8196 O   0  0  0  0  0  0  0  0  0  0  0  0
   28.3482   -1.4919   -8.1889 C   0  0  1  0  0  0  0  0  0  0  0  0
   28.8420   -1.9945   -9.3659 F   0  0  0  0  0  0  0  0  0  0  0  0
   29.3749   -1.3282   -7.2454 F   0  0  0  0  0  0  0  0  0  0  0  0
   27.5729   -2.5284   -7.6456 F   0  0  0  0  0  0  0  0  0  0  0  0
   26.0761    0.2585  -10.7577 C   0  0  0  0  0  0  0  0  0  0  0  0
   24.9218    0.1163  -11.5404 C   0  0  0  0  0  0  0  0  0  0  0  0
   25.1994    0.5607  -12.9430 C   0  0  0  0  0  0  0  0  0  0  0  0
   26.7132    0.4012  -13.0243 C   0  0  2  0  0  0  0  0  0  0  0  0
   27.1816    1.2659  -13.9811 F   0  0  0  0  0  0  0  0  0  0  0  0
   27.0935   -0.8793  -13.3018 F   0  0  0  0  0  0  0  0  0  0  0  0
   27.1227    0.8473  -11.6183 C   0  0  1  0  0  0  0  0  0  0  0  0
   27.0354    2.2527  -11.6926 O   0  0  0  0  0  0  0  0  0  0  0  0
   20.7713    0.3456  -10.5745 C   0  0  0  0  0  0  0  0  0  0  0  0
  1  2  3  0
  2  3  1  0
  3  4  2  0
  4  5  1  0
  5  6  1  0
  5  7  2  0
  7  8  1  0
  8  9  1  0
  9 10  1  0
 10 11  2  0
 11 12  1  0
 12 13  2  0
 14 13  1  6
 14 15  2  0
 14 16  2  0
 14 17  1  0
 17 18  1  6
 17 19  1  0
 17 20  1  0
 13 21  1  0
 21 22  2  0
 23 22  1  1
 23 24  1  0
 24 25  1  6
 24 26  1  0
 24 27  1  0
 27 28  1  6
  8 29  2  0
 29  3  1  0
 22 10  1  0
 27 21  1  0
M  END
$$$$
