_rank12
     RDKit          3D

 27 29  0  0  0  0  0  0  0  0999 V2000
   27.9570    0.6132   -7.3038 C   0  0  0  0  0  0  0  0  0  0  0  0
   27.7408   -0.6011   -8.5730 S   0  0  2  0  0  6  0  0  0  0  0  0
   27.7207   -1.9565   -7.8739 O   0  0  0  0  0  0  0  0  0  0  0  0
   28.9819   -0.6322   -9.4280 O   0  0  0  0  0  0  0  0  0  0  0  0
   26.3072   -0.4114   -9.5127 C   0  0  0  0  0  0  0  0  0  0  0  0
   25.0959   -0.7748   -8.9822 C   0  0  0  0  0  0  0  0  0  0  0  0
   23.9077   -0.6655   -9.6394 C   0  0  0  0  0  0  0  0  0  0  0  0
   23.8931   -0.1598  -10.9285 C   0  0  0  0  0  0  0  0  0  0  0  0
   22.6789   -0.0743  -11.5462 O   0  0  0  0  0  0  0  0  0  0  0  0
   21.4235   -0.3244  -11.0999 C   0  0  0  0  0  0  0  0  0  0  0  0
   20.7933    0.7355  -10.4230 C   0  0  0  0  0  0  0  0  0  0  0  0
   19.5278    0.6037   -9.9282 C   0  0  0  0  0  0  0  0  0  0  0  0
   18.9244    1.6445   -9.2665 F   0  0  0  0  0  0  0  0  0  0  0  0
   18.8574   -0.5838  -10.0945 C   0  0  0  0  0  0  0  0  0  0  0  0
   19.4459   -1.6599  -10.7601 C   0  0  0  0  0  0  0  0  0  0  0  0
   18.7628   -2.8949  -10.9328 C   0  0  0  0  0  0  0  0  0  0  0  0
   18.1936   -3.8996  -11.0581 N   0  0  0  0  0  0  0  0  0  0  0  0
   20.7189   -1.4710  -11.2360 C   0  0  0  0  0  0  0  0  0  0  0  0
   25.0922    0.2170  -11.5048 C   0  0  0  0  0  0  0  0  0  0  0  0
   26.3011    0.0921  -10.7957 C   0  0  0  0  0  0  0  0  0  0  0  0
   27.4296    0.5520  -11.6175 C   0  0  2  0  0  0  0  0  0  0  0  0
   27.9292    1.7597  -11.1429 O   0  0  0  0  0  0  0  0  0  0  0  0
   26.8744    0.7993  -12.9889 C   0  0  2  0  0  0  0  0  0  0  0  0
   27.3133   -0.1178  -13.9390 F   0  0  0  0  0  0  0  0  0  0  0  0
   27.2873    2.0493  -13.4683 F   0  0  0  0  0  0  0  0  0  0  0  0
   25.3690    0.7158  -12.8643 C   0  0  2  0  0  0  0  0  0  0  0  0
   24.8915    1.9694  -13.1390 F   0  0  0  0  0  0  0  0  0  0  0  0
  1  2  1  1
  2  3  2  0
  2  4  2  0
  2  5  1  6
  5  6  2  0
  6  7  1  0
  7  8  2  0
  8  9  1  0
  9 10  1  0
 10 11  2  0
 11 12  1  0
 12 13  1  0
 12 14  2  0
 14 15  1  0
 15 16  1  0
 16 17  3  0
 15 18  2  0
  8 19  1  0
 19 20  2  0
 20 21  1  0
 21 22  1  1
 21 23  1  0
 23 24  1  6
 23 25  1  0
 23 26  1  0
 26 27  1  1
 20  5  1  0
 18 10  1  0
 26 19  1  0
M  END
$$$$
