_rank15
     RDKit          3D

 27 29  0  0  0  0  0  0  0  0999 V2000
   28.6540   -2.0531   -8.9382 C   0  0  0  0  0  0  0  0  0  0  0  0
   27.8060   -0.5288   -8.6390 S   0  0  2  0  0  6  0  0  0  0  0  0
   28.7948    0.5858   -8.9647 O   0  0  0  0  0  0  0  0  0  0  0  0
   27.5581   -0.3968   -7.1579 O   0  0  0  0  0  0  0  0  0  0  0  0
   26.3651   -0.3143   -9.5621 C   0  0  0  0  0  0  0  0  0  0  0  0
   25.1456   -0.5444   -8.9785 C   0  0  0  0  0  0  0  0  0  0  0  0
   23.9511   -0.4042   -9.6184 C   0  0  0  0  0  0  0  0  0  0  0  0
   23.9384   -0.0068  -10.9449 C   0  0  0  0  0  0  0  0  0  0  0  0
   22.7174    0.1149  -11.5428 O   0  0  0  0  0  0  0  0  0  0  0  0
   21.4725   -0.2162  -11.1206 C   0  0  0  0  0  0  0  0  0  0  0  0
   20.7469    0.8122  -10.4923 C   0  0  0  0  0  0  0  0  0  0  0  0
   19.4818    0.5997  -10.0254 C   0  0  0  0  0  0  0  0  0  0  0  0
   18.7847    1.6106   -9.4110 F   0  0  0  0  0  0  0  0  0  0  0  0
   18.9064   -0.6391  -10.1721 C   0  0  0  0  0  0  0  0  0  0  0  0
   19.5913   -1.6865  -10.7897 C   0  0  0  0  0  0  0  0  0  0  0  0
   19.0070   -2.9738  -10.9417 C   0  0  0  0  0  0  0  0  0  0  0  0
   18.5448   -4.0306  -11.0780 N   0  0  0  0  0  0  0  0  0  0  0  0
   20.8592   -1.4159  -11.2392 C   0  0  0  0  0  0  0  0  0  0  0  0
   25.1454    0.2338  -11.5749 C   0  0  0  0  0  0  0  0  0  0  0  0
   26.3607    0.0810  -10.8825 C   0  0  0  0  0  0  0  0  0  0  0  0
   27.4969    0.3889  -11.7627 C   0  0  2  0  0  0  0  0  0  0  0  0
   28.0922    1.5925  -11.4015 O   0  0  0  0  0  0  0  0  0  0  0  0
   26.9246    0.5618  -13.1385 C   0  0  2  0  0  0  0  0  0  0  0  0
   27.2731   -0.4597  -14.0168 F   0  0  0  0  0  0  0  0  0  0  0  0
   27.4116    1.7351  -13.7296 F   0  0  0  0  0  0  0  0  0  0  0  0
   25.4209    0.5976  -12.9768 C   0  0  2  0  0  0  0  0  0  0  0  0
   25.0255    1.8555  -13.3463 F   0  0  0  0  0  0  0  0  0  0  0  0
  1  2  1  1
  2  3  2  0
  2  4  2  0
  2  5  1  6
  5  6  2  0
  6  7  1  0
  7  8  2  0
  8  9  1  0
  9 10  1  0
 10 11  2  0
 11 12  1  0
 12 13  1  0
 12 14  2  0
 14 15  1  0
 15 16  1  0
 16 17  3  0
 15 18  2  0
  8 19  1  0
 19 20  2  0
 20 21  1  0
 21 22  1  1
 21 23  1  0
 23 24  1  6
 23 25  1  0
 23 26  1  0
 26 27  1  1
 20  5  1  0
 18 10  1  0
 26 19  1  0
M  END
$$$$
