_rank4
     RDKit          3D

 27 29  0  0  0  0  0  0  0  0999 V2000
   28.7418   -1.7012   -8.4361 C   0  0  0  0  0  0  0  0  0  0  0  0
   27.7358   -0.2454   -8.4071 S   0  0  2  0  0  6  0  0  0  0  0  0
   28.6319    0.9068   -8.8495 O   0  0  0  0  0  0  0  0  0  0  0  0
   27.3867    0.0720   -6.9755 O   0  0  0  0  0  0  0  0  0  0  0  0
   26.3399   -0.3160   -9.4175 C   0  0  0  0  0  0  0  0  0  0  0  0
   25.1397   -0.7167   -8.8886 C   0  0  0  0  0  0  0  0  0  0  0  0
   23.9809   -0.8063   -9.5990 C   0  0  0  0  0  0  0  0  0  0  0  0
   23.9869   -0.4794  -10.9448 C   0  0  0  0  0  0  0  0  0  0  0  0
   22.8023   -0.5896  -11.6138 O   0  0  0  0  0  0  0  0  0  0  0  0
   21.5215   -0.6376  -11.1724 C   0  0  0  0  0  0  0  0  0  0  0  0
   20.8117   -1.8117  -11.4833 C   0  0  0  0  0  0  0  0  0  0  0  0
   19.5145   -1.9768  -11.0916 C   0  0  0  0  0  0  0  0  0  0  0  0
   18.8312   -3.1261  -11.4038 F   0  0  0  0  0  0  0  0  0  0  0  0
   18.8910   -0.9801  -10.3809 C   0  0  0  0  0  0  0  0  0  0  0  0
   19.5588    0.2000  -10.0514 C   0  0  0  0  0  0  0  0  0  0  0  0
   18.9211    1.2399   -9.3210 C   0  0  0  0  0  0  0  0  0  0  0  0
   18.4133    2.0868   -8.7094 N   0  0  0  0  0  0  0  0  0  0  0  0
   20.8605    0.3115  -10.4710 C   0  0  0  0  0  0  0  0  0  0  0  0
   25.1760   -0.0726  -11.5213 C   0  0  0  0  0  0  0  0  0  0  0  0
   26.3542    0.0104  -10.7566 C   0  0  0  0  0  0  0  0  0  0  0  0
   27.4782    0.4601  -11.5901 C   0  0  2  0  0  0  0  0  0  0  0  0
   27.8466    1.7612  -11.2662 O   0  0  0  0  0  0  0  0  0  0  0  0
   26.9728    0.4709  -13.0025 C   0  0  2  0  0  0  0  0  0  0  0  0
   27.5368   -0.5192  -13.8012 F   0  0  0  0  0  0  0  0  0  0  0  0
   27.2990    1.6793  -13.6320 F   0  0  0  0  0  0  0  0  0  0  0  0
   25.4761    0.2652  -12.9246 C   0  0  2  0  0  0  0  0  0  0  0  0
   24.9057    1.4215  -13.3858 F   0  0  0  0  0  0  0  0  0  0  0  0
  1  2  1  1
  2  3  2  0
  2  4  2  0
  2  5  1  6
  5  6  2  0
  6  7  1  0
  7  8  2  0
  8  9  1  0
  9 10  1  0
 10 11  2  0
 11 12  1  0
 12 13  1  0
 12 14  2  0
 14 15  1  0
 15 16  1  0
 16 17  3  0
 15 18  2  0
  8 19  1  0
 19 20  2  0
 20 21  1  0
 21 22  1  1
 21 23  1  0
 23 24  1  6
 23 25  1  0
 23 26  1  0
 26 27  1  1
 20  5  1  0
 18 10  1  0
 26 19  1  0
M  END
$$$$
