_rank1
     RDKit          3D

 27 29  0  0  0  0  0  0  0  0999 V2000
   28.4262    0.9132   -8.2405 C   0  0  0  0  0  0  0  0  0  0  0  0
   27.5336   -0.6016   -8.4429 S   0  0  2  0  0  6  0  0  0  0  0  0
   27.1361   -1.0581   -7.0430 O   0  0  0  0  0  0  0  0  0  0  0  0
   28.4867   -1.6618   -8.9327 O   0  0  0  0  0  0  0  0  0  0  0  0
   26.1281   -0.4809   -9.4350 C   0  0  0  0  0  0  0  0  0  0  0  0
   24.9036   -0.8221   -8.9201 C   0  0  0  0  0  0  0  0  0  0  0  0
   23.7353   -0.7625   -9.6180 C   0  0  0  0  0  0  0  0  0  0  0  0
   23.7566   -0.3352  -10.9351 C   0  0  0  0  0  0  0  0  0  0  0  0
   22.5612   -0.2972  -11.5929 O   0  0  0  0  0  0  0  0  0  0  0  0
   21.2886   -0.4607  -11.1555 C   0  0  0  0  0  0  0  0  0  0  0  0
   20.7142   -1.7206  -11.4041 C   0  0  0  0  0  0  0  0  0  0  0  0
   19.4386   -2.0048  -11.0099 C   0  0  0  0  0  0  0  0  0  0  0  0
   18.8878   -3.2373  -11.2611 F   0  0  0  0  0  0  0  0  0  0  0  0
   18.7027   -1.0450  -10.3585 C   0  0  0  0  0  0  0  0  0  0  0  0
   19.2346    0.2173  -10.0918 C   0  0  0  0  0  0  0  0  0  0  0  0
   18.4797    1.2196   -9.4230 C   0  0  0  0  0  0  0  0  0  0  0  0
   17.8718    2.0523   -8.8881 N   0  0  0  0  0  0  0  0  0  0  0  0
   20.5207    0.4473  -10.5109 C   0  0  0  0  0  0  0  0  0  0  0  0
   24.9701    0.0167  -11.4968 C   0  0  0  0  0  0  0  0  0  0  0  0
   26.1576   -0.0551  -10.7455 C   0  0  0  0  0  0  0  0  0  0  0  0
   27.3076    0.3643  -11.5593 C   0  0  2  0  0  0  0  0  0  0  0  0
   27.7843    1.6025  -11.1434 O   0  0  0  0  0  0  0  0  0  0  0  0
   26.7927    0.5243  -12.9591 C   0  0  2  0  0  0  0  0  0  0  0  0
   27.2665   -0.4443  -13.8387 F   0  0  0  0  0  0  0  0  0  0  0  0
   27.2116    1.7468  -13.5002 F   0  0  0  0  0  0  0  0  0  0  0  0
   25.2848    0.4354  -12.8749 C   0  0  2  0  0  0  0  0  0  0  0  0
   24.8074    1.6662  -13.2388 F   0  0  0  0  0  0  0  0  0  0  0  0
  1  2  1  1
  2  3  2  0
  2  4  2  0
  2  5  1  6
  5  6  2  0
  6  7  1  0
  7  8  2  0
  8  9  1  0
  9 10  1  0
 10 11  2  0
 11 12  1  0
 12 13  1  0
 12 14  2  0
 14 15  1  0
 15 16  1  0
 16 17  3  0
 15 18  2  0
  8 19  1  0
 19 20  2  0
 20 21  1  0
 21 22  1  1
 21 23  1  0
 23 24  1  6
 23 25  1  0
 23 26  1  0
 26 27  1  1
 20  5  1  0
 18 10  1  0
 26 19  1  0
M  END
$$$$
