_rank10
     RDKit          3D

 27 29  0  0  0  0  0  0  0  0999 V2000
   28.2258    0.7113   -7.2899 C   0  0  0  0  0  0  0  0  0  0  0  0
   27.7987   -0.7394   -8.2092 S   0  0  2  0  0  6  0  0  0  0  0  0
   27.5876   -1.8512   -7.1867 O   0  0  0  0  0  0  0  0  0  0  0  0
   29.0012   -1.1780   -9.0054 O   0  0  0  0  0  0  0  0  0  0  0  0
   26.3903   -0.5793   -9.1916 C   0  0  0  0  0  0  0  0  0  0  0  0
   25.1642   -0.9180   -8.6790 C   0  0  0  0  0  0  0  0  0  0  0  0
   23.9935   -0.8286   -9.3698 C   0  0  0  0  0  0  0  0  0  0  0  0
   24.0141   -0.3712  -10.6768 C   0  0  0  0  0  0  0  0  0  0  0  0
   22.8163   -0.3040  -11.3279 O   0  0  0  0  0  0  0  0  0  0  0  0
   21.5437   -0.4612  -10.8881 C   0  0  0  0  0  0  0  0  0  0  0  0
   20.9513   -1.7069  -11.1642 C   0  0  0  0  0  0  0  0  0  0  0  0
   19.6739   -1.9837  -10.7705 C   0  0  0  0  0  0  0  0  0  0  0  0
   19.1055   -3.2022  -11.0487 F   0  0  0  0  0  0  0  0  0  0  0  0
   18.9541   -1.0302  -10.0923 C   0  0  0  0  0  0  0  0  0  0  0  0
   19.5041    0.2180   -9.7978 C   0  0  0  0  0  0  0  0  0  0  0  0
   18.7659    1.2137   -9.1011 C   0  0  0  0  0  0  0  0  0  0  0  0
   18.1571    2.0133   -8.5188 N   0  0  0  0  0  0  0  0  0  0  0  0
   20.7912    0.4410  -10.2178 C   0  0  0  0  0  0  0  0  0  0  0  0
   25.2291   -0.0207  -11.2359 C   0  0  0  0  0  0  0  0  0  0  0  0
   26.4191   -0.1238  -10.4921 C   0  0  0  0  0  0  0  0  0  0  0  0
   27.5703    0.3008  -11.3013 C   0  0  2  0  0  0  0  0  0  0  0  0
   28.0635    1.5234  -10.8592 O   0  0  0  0  0  0  0  0  0  0  0  0
   27.0511    0.4992  -12.6947 C   0  0  2  0  0  0  0  0  0  0  0  0
   27.5095   -0.4543  -13.5986 F   0  0  0  0  0  0  0  0  0  0  0  0
   27.4820    1.7289  -13.2094 F   0  0  0  0  0  0  0  0  0  0  0  0
   25.5427    0.4261  -12.6054 C   0  0  2  0  0  0  0  0  0  0  0  0
   25.0783    1.6704  -12.9386 F   0  0  0  0  0  0  0  0  0  0  0  0
  1  2  1  1
  2  3  2  0
  2  4  2  0
  2  5  1  6
  5  6  2  0
  6  7  1  0
  7  8  2  0
  8  9  1  0
  9 10  1  0
 10 11  2  0
 11 12  1  0
 12 13  1  0
 12 14  2  0
 14 15  1  0
 15 16  1  0
 16 17  3  0
 15 18  2  0
  8 19  1  0
 19 20  2  0
 20 21  1  0
 21 22  1  1
 21 23  1  0
 23 24  1  6
 23 25  1  0
 23 26  1  0
 26 27  1  1
 20  5  1  0
 18 10  1  0
 26 19  1  0
M  END
$$$$
