_rank6
     RDKit          3D

 27 29  0  0  0  0  0  0  0  0999 V2000
   28.1524    1.2423   -8.0057 C   0  0  0  0  0  0  0  0  0  0  0  0
   27.7340   -0.3636   -8.6208 S   0  0  2  0  0  6  0  0  0  0  0  0
   27.5408   -1.2563   -7.3993 O   0  0  0  0  0  0  0  0  0  0  0  0
   28.9356   -0.9387   -9.3263 O   0  0  0  0  0  0  0  0  0  0  0  0
   26.3176   -0.4104   -9.6037 C   0  0  0  0  0  0  0  0  0  0  0  0
   25.1591   -0.9426   -9.0983 C   0  0  0  0  0  0  0  0  0  0  0  0
   23.9887   -1.0265   -9.7902 C   0  0  0  0  0  0  0  0  0  0  0  0
   23.9376   -0.5530  -11.0906 C   0  0  0  0  0  0  0  0  0  0  0  0
   22.7439   -0.6635  -11.7432 O   0  0  0  0  0  0  0  0  0  0  0  0
   21.4657   -0.6147  -11.2940 C   0  0  0  0  0  0  0  0  0  0  0  0
   20.6775   -1.7466  -11.5702 C   0  0  0  0  0  0  0  0  0  0  0  0
   19.3749   -1.8148  -11.1676 C   0  0  0  0  0  0  0  0  0  0  0  0
   18.6146   -2.9238  -11.4459 F   0  0  0  0  0  0  0  0  0  0  0  0
   18.8238   -0.7607  -10.4803 C   0  0  0  0  0  0  0  0  0  0  0  0
   19.5708    0.3806  -10.1854 C   0  0  0  0  0  0  0  0  0  0  0  0
   19.0087    1.4792   -9.4793 C   0  0  0  0  0  0  0  0  0  0  0  0
   18.5657    2.3875   -8.9066 N   0  0  0  0  0  0  0  0  0  0  0  0
   20.8741    0.3942  -10.6145 C   0  0  0  0  0  0  0  0  0  0  0  0
   25.0834   -0.0101  -11.6423 C   0  0  0  0  0  0  0  0  0  0  0  0
   26.2750    0.0624  -10.8976 C   0  0  0  0  0  0  0  0  0  0  0  0
   27.3461    0.6721  -11.6986 C   0  0  2  0  0  0  0  0  0  0  0  0
   27.6435    1.9501  -11.2384 O   0  0  0  0  0  0  0  0  0  0  0  0
   26.8022    0.8070  -13.0900 C   0  0  2  0  0  0  0  0  0  0  0  0
   27.4030   -0.0508  -14.0063 F   0  0  0  0  0  0  0  0  0  0  0  0
   27.0367    2.0959  -13.5867 F   0  0  0  0  0  0  0  0  0  0  0  0
   25.3235    0.4992  -13.0048 C   0  0  2  0  0  0  0  0  0  0  0  0
   24.6713    1.6609  -13.3215 F   0  0  0  0  0  0  0  0  0  0  0  0
  1  2  1  1
  2  3  2  0
  2  4  2  0
  2  5  1  6
  5  6  2  0
  6  7  1  0
  7  8  2  0
  8  9  1  0
  9 10  1  0
 10 11  2  0
 11 12  1  0
 12 13  1  0
 12 14  2  0
 14 15  1  0
 15 16  1  0
 16 17  3  0
 15 18  2  0
  8 19  1  0
 19 20  2  0
 20 21  1  0
 21 22  1  1
 21 23  1  0
 23 24  1  6
 23 25  1  0
 23 26  1  0
 26 27  1  1
 20  5  1  0
 18 10  1  0
 26 19  1  0
M  END
$$$$
