_rank20
     RDKit          3D

 27 29  0  0  0  0  0  0  0  0999 V2000
   29.3748   -0.1729   -8.9699 C   0  0  0  0  0  0  0  0  0  0  0  0
   27.9766   -1.1843   -8.5772 S   0  0  2  0  0  6  0  0  0  0  0  0
   27.7917   -1.0963   -7.0658 O   0  0  0  0  0  0  0  0  0  0  0  0
   28.3361   -2.6257   -8.8334 O   0  0  0  0  0  0  0  0  0  0  0  0
   26.5139   -0.7274   -9.3684 C   0  0  0  0  0  0  0  0  0  0  0  0
   25.3331   -0.7411   -8.6710 C   0  0  0  0  0  0  0  0  0  0  0  0
   24.1259   -0.3989   -9.2013 C   0  0  0  0  0  0  0  0  0  0  0  0
   24.0573   -0.0101  -10.5287 C   0  0  0  0  0  0  0  0  0  0  0  0
   22.8247    0.3186  -11.0144 O   0  0  0  0  0  0  0  0  0  0  0  0
   21.5928   -0.1842  -10.7553 C   0  0  0  0  0  0  0  0  0  0  0  0
   21.4431   -1.5684  -10.9569 C   0  0  0  0  0  0  0  0  0  0  0  0
   20.2492   -2.1897  -10.7286 C   0  0  0  0  0  0  0  0  0  0  0  0
   20.1147   -3.5410  -10.9320 F   0  0  0  0  0  0  0  0  0  0  0  0
   19.1754   -1.4516  -10.2937 C   0  0  0  0  0  0  0  0  0  0  0  0
   19.2811   -0.0765  -10.0809 C   0  0  0  0  0  0  0  0  0  0  0  0
   18.1745    0.6976   -9.6361 C   0  0  0  0  0  0  0  0  0  0  0  0
   17.2589    1.3205   -9.2859 N   0  0  0  0  0  0  0  0  0  0  0  0
   20.5043    0.4947  -10.3267 C   0  0  0  0  0  0  0  0  0  0  0  0
   25.2232    0.0159  -11.2714 C   0  0  0  0  0  0  0  0  0  0  0  0
   26.4537   -0.3423  -10.6904 C   0  0  0  0  0  0  0  0  0  0  0  0
   27.5383   -0.2386  -11.6770 C   0  0  2  0  0  0  0  0  0  0  0  0
   28.3627    0.8452  -11.3959 O   0  0  0  0  0  0  0  0  0  0  0  0
   26.8778    0.0255  -12.9978 C   0  0  2  0  0  0  0  0  0  0  0  0
   26.9617   -1.0441  -13.8839 F   0  0  0  0  0  0  0  0  0  0  0  0
   27.5014    1.0947  -13.6541 F   0  0  0  0  0  0  0  0  0  0  0  0
   25.4244    0.3213  -12.6996 C   0  0  2  0  0  0  0  0  0  0  0  0
   25.2181    1.6272  -13.0561 F   0  0  0  0  0  0  0  0  0  0  0  0
  1  2  1  1
  2  3  2  0
  2  4  2  0
  2  5  1  6
  5  6  2  0
  6  7  1  0
  7  8  2  0
  8  9  1  0
  9 10  1  0
 10 11  2  0
 11 12  1  0
 12 13  1  0
 12 14  2  0
 14 15  1  0
 15 16  1  0
 16 17  3  0
 15 18  2  0
  8 19  1  0
 19 20  2  0
 20 21  1  0
 21 22  1  1
 21 23  1  0
 23 24  1  6
 23 25  1  0
 23 26  1  0
 26 27  1  1
 20  5  1  0
 18 10  1  0
 26 19  1  0
M  END
$$$$
