_rank5
     RDKit          3D

 27 29  0  0  0  0  0  0  0  0999 V2000
   28.6561    0.6688   -8.4000 C   0  0  0  0  0  0  0  0  0  0  0  0
   27.6118   -0.7576   -8.4843 S   0  0  2  0  0  6  0  0  0  0  0  0
   27.2526   -1.1146   -7.0456 O   0  0  0  0  0  0  0  0  0  0  0  0
   28.4288   -1.9260   -8.9738 O   0  0  0  0  0  0  0  0  0  0  0  0
   26.1700   -0.5397   -9.4054 C   0  0  0  0  0  0  0  0  0  0  0  0
   24.9510   -0.7700   -8.8209 C   0  0  0  0  0  0  0  0  0  0  0  0
   23.7560   -0.6273   -9.4592 C   0  0  0  0  0  0  0  0  0  0  0  0
   23.7421   -0.2267  -10.7848 C   0  0  0  0  0  0  0  0  0  0  0  0
   22.5206   -0.1026  -11.3811 O   0  0  0  0  0  0  0  0  0  0  0  0
   21.2715   -0.3917  -10.9407 C   0  0  0  0  0  0  0  0  0  0  0  0
   20.5769    0.6701  -10.3332 C   0  0  0  0  0  0  0  0  0  0  0  0
   19.3110    0.5011   -9.8510 C   0  0  0  0  0  0  0  0  0  0  0  0
   18.6444    1.5443   -9.2572 F   0  0  0  0  0  0  0  0  0  0  0  0
   18.7040   -0.7263   -9.9614 C   0  0  0  0  0  0  0  0  0  0  0  0
   19.3574   -1.8058  -10.5573 C   0  0  0  0  0  0  0  0  0  0  0  0
   18.7403   -3.0816  -10.6717 C   0  0  0  0  0  0  0  0  0  0  0  0
   18.2532   -4.1324  -10.7595 N   0  0  0  0  0  0  0  0  0  0  0  0
   20.6277   -1.5784  -11.0236 C   0  0  0  0  0  0  0  0  0  0  0  0
   24.9487    0.0143  -11.4156 C   0  0  0  0  0  0  0  0  0  0  0  0
   26.1646   -0.1413  -10.7248 C   0  0  0  0  0  0  0  0  0  0  0  0
   27.3000    0.1677  -11.6056 C   0  0  2  0  0  0  0  0  0  0  0  0
   27.8969    1.3699  -11.2422 O   0  0  0  0  0  0  0  0  0  0  0  0
   26.7264    0.3443  -12.9804 C   0  0  2  0  0  0  0  0  0  0  0  0
   27.0730   -0.6754  -13.8614 F   0  0  0  0  0  0  0  0  0  0  0  0
   27.2138    1.5185  -13.5692 F   0  0  0  0  0  0  0  0  0  0  0  0
   25.2229    0.3811  -12.8169 C   0  0  2  0  0  0  0  0  0  0  0  0
   24.8282    1.6401  -13.1830 F   0  0  0  0  0  0  0  0  0  0  0  0
  1  2  1  1
  2  3  2  0
  2  4  2  0
  2  5  1  6
  5  6  2  0
  6  7  1  0
  7  8  2  0
  8  9  1  0
  9 10  1  0
 10 11  2  0
 11 12  1  0
 12 13  1  0
 12 14  2  0
 14 15  1  0
 15 16  1  0
 16 17  3  0
 15 18  2  0
  8 19  1  0
 19 20  2  0
 20 21  1  0
 21 22  1  1
 21 23  1  0
 23 24  1  6
 23 25  1  0
 23 26  1  0
 26 27  1  1
 20  5  1  0
 18 10  1  0
 26 19  1  0
M  END
$$$$
