_rank19
     RDKit          3D

 27 29  0  0  0  0  0  0  0  0999 V2000
   27.8718   -0.5384   -6.7344 C   0  0  0  0  0  0  0  0  0  0  0  0
   28.1103   -0.5642   -8.4879 S   0  0  2  0  0  6  0  0  0  0  0  0
   28.7879   -1.8918   -8.8113 O   0  0  0  0  0  0  0  0  0  0  0  0
   29.1317    0.4829   -8.8518 O   0  0  0  0  0  0  0  0  0  0  0  0
   26.6627   -0.4112   -9.4127 C   0  0  0  0  0  0  0  0  0  0  0  0
   25.4509   -0.6622   -8.8216 C   0  0  0  0  0  0  0  0  0  0  0  0
   24.2522   -0.5700   -9.4621 C   0  0  0  0  0  0  0  0  0  0  0  0
   24.2264   -0.2030  -10.7972 C   0  0  0  0  0  0  0  0  0  0  0  0
   23.0017   -0.1292  -11.3953 O   0  0  0  0  0  0  0  0  0  0  0  0
   21.7601   -0.4309  -10.9422 C   0  0  0  0  0  0  0  0  0  0  0  0
   21.3392   -1.7568  -11.1509 C   0  0  0  0  0  0  0  0  0  0  0  0
   20.1088   -2.1799  -10.7377 C   0  0  0  0  0  0  0  0  0  0  0  0
   19.7080   -3.4760  -10.9500 F   0  0  0  0  0  0  0  0  0  0  0  0
   19.2671   -1.2966  -10.1065 C   0  0  0  0  0  0  0  0  0  0  0  0
   19.6457    0.0272   -9.8795 C   0  0  0  0  0  0  0  0  0  0  0  0
   18.7801    0.9508   -9.2320 C   0  0  0  0  0  0  0  0  0  0  0  0
   18.0580    1.6924   -8.7048 N   0  0  0  0  0  0  0  0  0  0  0  0
   20.8928    0.3970  -10.3161 C   0  0  0  0  0  0  0  0  0  0  0  0
   25.4253    0.0571  -11.4349 C   0  0  0  0  0  0  0  0  0  0  0  0
   26.6454   -0.0459  -10.7416 C   0  0  0  0  0  0  0  0  0  0  0  0
   27.7712    0.2739  -11.6308 C   0  0  2  0  0  0  0  0  0  0  0  0
   28.3330    1.5016  -11.2979 O   0  0  0  0  0  0  0  0  0  0  0  0
   27.1925    0.3997  -13.0090 C   0  0  2  0  0  0  0  0  0  0  0  0
   27.5683   -0.6311  -13.8649 F   0  0  0  0  0  0  0  0  0  0  0  0
   27.6454    1.5726  -13.6272 F   0  0  0  0  0  0  0  0  0  0  0  0
   25.6886    0.3969  -12.8451 C   0  0  2  0  0  0  0  0  0  0  0  0
   25.2574    1.6345  -13.2419 F   0  0  0  0  0  0  0  0  0  0  0  0
  1  2  1  1
  2  3  2  0
  2  4  2  0
  2  5  1  6
  5  6  2  0
  6  7  1  0
  7  8  2  0
  8  9  1  0
  9 10  1  0
 10 11  2  0
 11 12  1  0
 12 13  1  0
 12 14  2  0
 14 15  1  0
 15 16  1  0
 16 17  3  0
 15 18  2  0
  8 19  1  0
 19 20  2  0
 20 21  1  0
 21 22  1  1
 21 23  1  0
 23 24  1  6
 23 25  1  0
 23 26  1  0
 26 27  1  1
 20  5  1  0
 18 10  1  0
 26 19  1  0
M  END
$$$$
