_rank18
     RDKit          3D

 27 29  0  0  0  0  0  0  0  0999 V2000
   29.0113   -1.6535   -9.2123 C   0  0  0  0  0  0  0  0  0  0  0  0
   27.7533   -0.6550   -8.4691 S   0  0  2  0  0  6  0  0  0  0  0  0
   28.3894    0.7029   -8.1901 O   0  0  0  0  0  0  0  0  0  0  0  0
   27.4359   -1.2140   -7.1056 O   0  0  0  0  0  0  0  0  0  0  0  0
   26.3384   -0.4461   -9.4328 C   0  0  0  0  0  0  0  0  0  0  0  0
   25.1037   -0.6819   -8.8843 C   0  0  0  0  0  0  0  0  0  0  0  0
   23.9274   -0.5464   -9.5579 C   0  0  0  0  0  0  0  0  0  0  0  0
   23.9508   -0.1479  -10.8840 C   0  0  0  0  0  0  0  0  0  0  0  0
   22.7468   -0.0310  -11.5164 O   0  0  0  0  0  0  0  0  0  0  0  0
   21.4905   -0.3577  -11.1257 C   0  0  0  0  0  0  0  0  0  0  0  0
   21.1108   -1.6944  -11.3446 C   0  0  0  0  0  0  0  0  0  0  0  0
   19.8704   -2.1424  -10.9921 C   0  0  0  0  0  0  0  0  0  0  0  0
   19.5103   -3.4488  -11.2137 F   0  0  0  0  0  0  0  0  0  0  0  0
   18.9774   -1.2739  -10.4130 C   0  0  0  0  0  0  0  0  0  0  0  0
   19.3138    0.0598  -10.1780 C   0  0  0  0  0  0  0  0  0  0  0  0
   18.3953    0.9682   -9.5841 C   0  0  0  0  0  0  0  0  0  0  0  0
   17.6575    1.7130   -9.0839 N   0  0  0  0  0  0  0  0  0  0  0  0
   20.5734    0.4548  -10.5526 C   0  0  0  0  0  0  0  0  0  0  0  0
   25.1742    0.0985  -11.4792 C   0  0  0  0  0  0  0  0  0  0  0  0
   26.3699   -0.0497  -10.7525 C   0  0  0  0  0  0  0  0  0  0  0  0
   27.5294    0.2640  -11.5997 C   0  0  2  0  0  0  0  0  0  0  0  0
   28.1089    1.4698  -11.2208 O   0  0  0  0  0  0  0  0  0  0  0  0
   26.9958    0.4355  -12.9912 C   0  0  2  0  0  0  0  0  0  0  0  0
   27.3736   -0.5837  -13.8599 F   0  0  0  0  0  0  0  0  0  0  0  0
   27.4943    1.6114  -13.5672 F   0  0  0  0  0  0  0  0  0  0  0  0
   25.4879    0.4646  -12.8724 C   0  0  2  0  0  0  0  0  0  0  0  0
   25.0977    1.7211  -13.2521 F   0  0  0  0  0  0  0  0  0  0  0  0
  1  2  1  1
  2  3  2  0
  2  4  2  0
  2  5  1  6
  5  6  2  0
  6  7  1  0
  7  8  2  0
  8  9  1  0
  9 10  1  0
 10 11  2  0
 11 12  1  0
 12 13  1  0
 12 14  2  0
 14 15  1  0
 15 16  1  0
 16 17  3  0
 15 18  2  0
  8 19  1  0
 19 20  2  0
 20 21  1  0
 21 22  1  1
 21 23  1  0
 23 24  1  6
 23 25  1  0
 23 26  1  0
 26 27  1  1
 20  5  1  0
 18 10  1  0
 26 19  1  0
M  END
$$$$
