_rank11
     RDKit          3D

 27 29  0  0  0  0  0  0  0  0999 V2000
   28.7567    0.5920   -8.2671 C   0  0  0  0  0  0  0  0  0  0  0  0
   27.7235   -0.8221   -8.5217 S   0  0  2  0  0  6  0  0  0  0  0  0
   27.3440   -1.3338   -7.1358 O   0  0  0  0  0  0  0  0  0  0  0  0
   28.5559   -1.9269   -9.1205 O   0  0  0  0  0  0  0  0  0  0  0  0
   26.2951   -0.5134   -9.4375 C   0  0  0  0  0  0  0  0  0  0  0  0
   25.0723   -0.8640   -8.9250 C   0  0  0  0  0  0  0  0  0  0  0  0
   23.8870   -0.6641   -9.5659 C   0  0  0  0  0  0  0  0  0  0  0  0
   23.8877   -0.0723  -10.8179 C   0  0  0  0  0  0  0  0  0  0  0  0
   22.6756    0.1023  -11.4208 O   0  0  0  0  0  0  0  0  0  0  0  0
   21.4200   -0.2216  -11.0257 C   0  0  0  0  0  0  0  0  0  0  0  0
   20.7013    0.7989  -10.3770 C   0  0  0  0  0  0  0  0  0  0  0  0
   19.4267    0.5925   -9.9340 C   0  0  0  0  0  0  0  0  0  0  0  0
   18.7365    1.5956   -9.2992 F   0  0  0  0  0  0  0  0  0  0  0  0
   18.8346   -0.6322  -10.1253 C   0  0  0  0  0  0  0  0  0  0  0  0
   19.5121   -1.6715  -10.7644 C   0  0  0  0  0  0  0  0  0  0  0  0
   18.9105   -2.9444  -10.9628 C   0  0  0  0  0  0  0  0  0  0  0  0
   18.4325   -3.9924  -11.1124 N   0  0  0  0  0  0  0  0  0  0  0  0
   20.7902   -1.4076  -11.1883 C   0  0  0  0  0  0  0  0  0  0  0  0
   25.0987    0.2954  -11.3750 C   0  0  0  0  0  0  0  0  0  0  0  0
   26.3042    0.0757  -10.6835 C   0  0  0  0  0  0  0  0  0  0  0  0
   27.4471    0.5454  -11.4795 C   0  0  2  0  0  0  0  0  0  0  0  0
   27.9957    1.6978  -10.9277 O   0  0  0  0  0  0  0  0  0  0  0  0
   26.8971    0.9065  -12.8276 C   0  0  2  0  0  0  0  0  0  0  0  0
   27.2960    0.0393  -13.8401 F   0  0  0  0  0  0  0  0  0  0  0  0
   27.3573    2.1690  -13.2242 F   0  0  0  0  0  0  0  0  0  0  0  0
   25.3901    0.8737  -12.6994 C   0  0  2  0  0  0  0  0  0  0  0  0
   24.9614    2.1608  -12.8861 F   0  0  0  0  0  0  0  0  0  0  0  0
  1  2  1  1
  2  3  2  0
  2  4  2  0
  2  5  1  6
  5  6  2  0
  6  7  1  0
  7  8  2  0
  8  9  1  0
  9 10  1  0
 10 11  2  0
 11 12  1  0
 12 13  1  0
 12 14  2  0
 14 15  1  0
 15 16  1  0
 16 17  3  0
 15 18  2  0
  8 19  1  0
 19 20  2  0
 20 21  1  0
 21 22  1  1
 21 23  1  0
 23 24  1  6
 23 25  1  0
 23 26  1  0
 26 27  1  1
 20  5  1  0
 18 10  1  0
 26 19  1  0
M  END
$$$$
