_rank8
     RDKit          3D

 27 29  0  0  0  0  0  0  0  0999 V2000
   28.5810    0.5045   -8.0293 C   0  0  0  0  0  0  0  0  0  0  0  0
   27.6190   -0.9211   -8.4471 S   0  0  2  0  0  6  0  0  0  0  0  0
   27.2599   -1.6001   -7.1294 O   0  0  0  0  0  0  0  0  0  0  0  0
   28.5067   -1.9118   -9.1562 O   0  0  0  0  0  0  0  0  0  0  0  0
   26.1806   -0.5825   -9.3363 C   0  0  0  0  0  0  0  0  0  0  0  0
   24.9577   -0.8319   -8.7679 C   0  0  0  0  0  0  0  0  0  0  0  0
   23.7649   -0.6003   -9.3837 C   0  0  0  0  0  0  0  0  0  0  0  0
   23.7574   -0.0815  -10.6677 C   0  0  0  0  0  0  0  0  0  0  0  0
   22.5377    0.1286  -11.2433 O   0  0  0  0  0  0  0  0  0  0  0  0
   21.2898   -0.2440  -10.8671 C   0  0  0  0  0  0  0  0  0  0  0  0
   20.5244    0.7460  -10.2243 C   0  0  0  0  0  0  0  0  0  0  0  0
   19.2524    0.4899   -9.7999 C   0  0  0  0  0  0  0  0  0  0  0  0
   18.5164    1.4635   -9.1708 F   0  0  0  0  0  0  0  0  0  0  0  0
   18.7095   -0.7553  -10.0045 C   0  0  0  0  0  0  0  0  0  0  0  0
   19.4343   -1.7655  -10.6382 C   0  0  0  0  0  0  0  0  0  0  0  0
   18.8838   -3.0592  -10.8501 C   0  0  0  0  0  0  0  0  0  0  0  0
   18.4178   -4.1077  -11.0311 N   0  0  0  0  0  0  0  0  0  0  0  0
   20.7073   -1.4520  -11.0432 C   0  0  0  0  0  0  0  0  0  0  0  0
   24.9679    0.1831  -11.2813 C   0  0  0  0  0  0  0  0  0  0  0  0
   26.1815   -0.0667  -10.6145 C   0  0  0  0  0  0  0  0  0  0  0  0
   27.3220    0.2901  -11.4704 C   0  0  2  0  0  0  0  0  0  0  0  0
   27.9525    1.4381  -11.0036 O   0  0  0  0  0  0  0  0  0  0  0  0
   26.7487    0.6053  -12.8203 C   0  0  2  0  0  0  0  0  0  0  0  0
   27.0644   -0.3397  -13.7917 F   0  0  0  0  0  0  0  0  0  0  0  0
   27.2658    1.8144  -13.3038 F   0  0  0  0  0  0  0  0  0  0  0  0
   25.2473    0.6673  -12.6455 C   0  0  2  0  0  0  0  0  0  0  0  0
   24.8857    1.9644  -12.8943 F   0  0  0  0  0  0  0  0  0  0  0  0
  1  2  1  1
  2  3  2  0
  2  4  2  0
  2  5  1  6
  5  6  2  0
  6  7  1  0
  7  8  2  0
  8  9  1  0
  9 10  1  0
 10 11  2  0
 11 12  1  0
 12 13  1  0
 12 14  2  0
 14 15  1  0
 15 16  1  0
 16 17  3  0
 15 18  2  0
  8 19  1  0
 19 20  2  0
 20 21  1  0
 21 22  1  1
 21 23  1  0
 23 24  1  6
 23 25  1  0
 23 26  1  0
 26 27  1  1
 20  5  1  0
 18 10  1  0
 26 19  1  0
M  END
$$$$
