_rank9
     RDKit          3D

 27 29  0  0  0  0  0  0  0  0999 V2000
   28.7145    0.7275   -8.2559 C   0  0  0  0  0  0  0  0  0  0  0  0
   27.9039   -0.7847   -8.6901 S   0  0  2  0  0  6  0  0  0  0  0  0
   27.5602   -1.4818   -7.3778 O   0  0  0  0  0  0  0  0  0  0  0  0
   28.9047   -1.6956   -9.3542 O   0  0  0  0  0  0  0  0  0  0  0  0
   26.4745   -0.5886   -9.6348 C   0  0  0  0  0  0  0  0  0  0  0  0
   25.2634   -0.9745   -9.1199 C   0  0  0  0  0  0  0  0  0  0  0  0
   24.0783   -0.8624   -9.7823 C   0  0  0  0  0  0  0  0  0  0  0  0
   24.0670   -0.3297  -11.0605 C   0  0  0  0  0  0  0  0  0  0  0  0
   22.8559   -0.2425  -11.6840 O   0  0  0  0  0  0  0  0  0  0  0  0
   21.5935   -0.4285  -11.2263 C   0  0  0  0  0  0  0  0  0  0  0  0
   21.0426   -1.7027  -11.4542 C   0  0  0  0  0  0  0  0  0  0  0  0
   19.7791   -2.0099  -11.0386 C   0  0  0  0  0  0  0  0  0  0  0  0
   19.2512   -3.2562  -11.2697 F   0  0  0  0  0  0  0  0  0  0  0  0
   19.0325   -1.0593  -10.3858 C   0  0  0  0  0  0  0  0  0  0  0  0
   19.5411    0.2166  -10.1392 C   0  0  0  0  0  0  0  0  0  0  0  0
   18.7748    1.2093   -9.4693 C   0  0  0  0  0  0  0  0  0  0  0  0
   18.1404    2.0061   -8.9108 N   0  0  0  0  0  0  0  0  0  0  0  0
   20.8159    0.4695  -10.5794 C   0  0  0  0  0  0  0  0  0  0  0  0
   25.2660    0.0706  -11.6209 C   0  0  0  0  0  0  0  0  0  0  0  0
   26.4716   -0.0580  -10.9069 C   0  0  0  0  0  0  0  0  0  0  0  0
   27.6008    0.4298  -11.7114 C   0  0  2  0  0  0  0  0  0  0  0  0
   28.0859    1.6318  -11.2082 O   0  0  0  0  0  0  0  0  0  0  0  0
   27.0518    0.7010  -13.0809 C   0  0  2  0  0  0  0  0  0  0  0  0
   27.5053   -0.1916  -14.0473 F   0  0  0  0  0  0  0  0  0  0  0  0
   27.4557    1.9647  -13.5310 F   0  0  0  0  0  0  0  0  0  0  0  0
   25.5465    0.6006  -12.9677 C   0  0  2  0  0  0  0  0  0  0  0  0
   25.0588    1.8553  -13.2190 F   0  0  0  0  0  0  0  0  0  0  0  0
  1  2  1  1
  2  3  2  0
  2  4  2  0
  2  5  1  6
  5  6  2  0
  6  7  1  0
  7  8  2  0
  8  9  1  0
  9 10  1  0
 10 11  2  0
 11 12  1  0
 12 13  1  0
 12 14  2  0
 14 15  1  0
 15 16  1  0
 16 17  3  0
 15 18  2  0
  8 19  1  0
 19 20  2  0
 20 21  1  0
 21 22  1  1
 21 23  1  0
 23 24  1  6
 23 25  1  0
 23 26  1  0
 26 27  1  1
 20  5  1  0
 18 10  1  0
 26 19  1  0
M  END
$$$$
