_rank5
     RDKit          3D

 15 15  0  0  0  0  0  0  0  0999 V2000
   25.6181    1.6299  -11.4780 C   0  0  0  0  0  0  0  0  0  0  0  0
   25.4280    0.1701  -11.8051 C   0  0  1  0  0  0  0  0  0  0  0  0
   24.3826    0.0352  -12.8733 C   0  0  0  0  0  0  0  0  0  0  0  0
   26.6735   -0.3493  -12.3483 N   0  0  0  0  0  0  0  0  0  0  0  0
   25.1170   -0.5970  -10.5609 C   0  0  0  0  0  0  0  0  0  0  0  0
   24.1003    0.0082   -9.7848 O   0  0  0  0  0  0  0  0  0  0  0  0
   22.7743   -0.2689  -10.0704 C   0  0  0  0  0  0  0  0  0  0  0  0
   22.3619   -1.4853  -10.5703 C   0  0  0  0  0  0  0  0  0  0  0  0
   21.0302   -1.7509  -10.8526 C   0  0  0  0  0  0  0  0  0  0  0  0
   20.6325   -2.9525  -11.3450 F   0  0  0  0  0  0  0  0  0  0  0  0
   20.0684   -0.7855  -10.6356 C   0  0  0  0  0  0  0  0  0  0  0  0
   20.4665    0.4490  -10.1312 C   0  0  0  0  0  0  0  0  0  0  0  0
   19.4607    1.4557   -9.9053 C   0  0  0  0  0  0  0  0  0  0  0  0
   18.6589    2.2672   -9.7055 N   0  0  0  0  0  0  0  0  0  0  0  0
   21.7977    0.6823   -9.8607 C   0  0  0  0  0  0  0  0  0  0  0  0
  1  2  1  1
  3  2  1  6
  2  4  1  6
  2  5  1  0
  5  6  1  1
  6  7  1  0
  7  8  2  0
  8  9  1  0
  9 10  1  0
  9 11  2  0
 11 12  1  0
 12 13  1  0
 13 14  3  0
 12 15  2  0
 15  7  1  0
M  END
$$$$
