_rank9
     RDKit          3D

 15 15  0  0  0  0  0  0  0  0999 V2000
   21.1516   -2.4085  -12.2194 C   0  0  0  0  0  0  0  0  0  0  0  0
   21.1296   -1.8156  -10.8330 C   0  0  1  0  0  0  0  0  0  0  0  0
   19.7061   -1.6668  -10.3818 C   0  0  0  0  0  0  0  0  0  0  0  0
   21.7794   -2.7443   -9.9212 N   0  0  0  0  0  0  0  0  0  0  0  0
   21.9028   -0.5369  -10.8108 C   0  0  0  0  0  0  0  0  0  0  0  0
   22.6441   -0.3665   -9.6176 O   0  0  0  0  0  0  0  0  0  0  0  0
   24.0155   -0.1911   -9.6913 C   0  0  0  0  0  0  0  0  0  0  0  0
   24.5917    0.8983  -10.3083 C   0  0  0  0  0  0  0  0  0  0  0  0
   25.9673    1.0628  -10.3756 C   0  0  0  0  0  0  0  0  0  0  0  0
   26.5268    2.1395  -10.9856 F   0  0  0  0  0  0  0  0  0  0  0  0
   26.8074    0.1219   -9.8159 C   0  0  0  0  0  0  0  0  0  0  0  0
   26.2430   -0.9849   -9.1887 C   0  0  0  0  0  0  0  0  0  0  0  0
   27.1220   -1.9661   -8.6049 C   0  0  0  0  0  0  0  0  0  0  0  0
   27.8176   -2.7546   -8.1194 N   0  0  0  0  0  0  0  0  0  0  0  0
   24.8724   -1.1199   -9.1383 C   0  0  0  0  0  0  0  0  0  0  0  0
  1  2  1  1
  3  2  1  6
  2  4  1  1
  2  5  1  0
  5  6  1  1
  6  7  1  0
  7  8  2  0
  8  9  1  0
  9 10  1  0
  9 11  2  0
 11 12  1  0
 12 13  1  0
 13 14  3  0
 12 15  2  0
 15  7  1  0
M  END
$$$$
