_rank4
     RDKit          3D

 15 15  0  0  0  0  0  0  0  0999 V2000
   26.4461    0.5373  -12.5018 C   0  0  0  0  0  0  0  0  0  0  0  0
   26.3096    0.5370  -11.0000 C   0  0  1  0  0  0  0  0  0  0  0  0
   27.0822   -0.6182  -10.4339 C   0  0  0  0  0  0  0  0  0  0  0  0
   26.9084    1.7565  -10.4799 N   0  0  0  0  0  0  0  0  0  0  0  0
   24.8650    0.5379  -10.6174 C   0  0  0  0  0  0  0  0  0  0  0  0
   24.1549   -0.5597  -11.1588 O   0  0  0  0  0  0  0  0  0  0  0  0
   22.7999   -0.6827  -10.9030 C   0  0  0  0  0  0  0  0  0  0  0  0
   22.0439    0.3523  -10.3962 C   0  0  0  0  0  0  0  0  0  0  0  0
   20.6868    0.2167  -10.1440 C   0  0  0  0  0  0  0  0  0  0  0  0
   19.9493    1.2419   -9.6445 F   0  0  0  0  0  0  0  0  0  0  0  0
   20.0492   -0.9802  -10.3993 C   0  0  0  0  0  0  0  0  0  0  0  0
   20.7968   -2.0365  -10.9113 C   0  0  0  0  0  0  0  0  0  0  0  0
   20.1292   -3.2854  -11.1772 C   0  0  0  0  0  0  0  0  0  0  0  0
   19.5754   -4.2807  -11.3864 N   0  0  0  0  0  0  0  0  0  0  0  0
   22.1438   -1.8704  -11.1512 C   0  0  0  0  0  0  0  0  0  0  0  0
  1  2  1  1
  3  2  1  6
  2  4  1  1
  2  5  1  0
  5  6  1  1
  6  7  1  0
  7  8  2  0
  8  9  1  0
  9 10  1  0
  9 11  2  0
 11 12  1  0
 12 13  1  0
 13 14  3  0
 12 15  2  0
 15  7  1  0
M  END
$$$$
