_rank17
     RDKit          3D

 15 15  0  0  0  0  0  0  0  0999 V2000
   27.5936    0.4399  -11.7847 C   0  0  0  0  0  0  0  0  0  0  0  0
   26.7703    0.0816  -10.5732 C   0  0  1  0  0  0  0  0  0  0  0  0
   27.2371   -1.2376  -10.0311 C   0  0  0  0  0  0  0  0  0  0  0  0
   27.0027    1.0815   -9.5424 N   0  0  0  0  0  0  0  0  0  0  0  0
   25.3160    0.1085  -10.9164 C   0  0  0  0  0  0  0  0  0  0  0  0
   24.7128   -1.1694  -10.8430 O   0  0  0  0  0  0  0  0  0  0  0  0
   23.3426   -1.2821  -11.0062 C   0  0  0  0  0  0  0  0  0  0  0  0
   22.6856   -0.7970  -12.1164 C   0  0  0  0  0  0  0  0  0  0  0  0
   21.3121   -0.9161  -12.2683 C   0  0  0  0  0  0  0  0  0  0  0  0
   20.6726   -0.4352  -13.3658 F   0  0  0  0  0  0  0  0  0  0  0  0
   20.5565   -1.5347  -11.2933 C   0  0  0  0  0  0  0  0  0  0  0  0
   21.2032   -2.0306  -10.1651 C   0  0  0  0  0  0  0  0  0  0  0  0
   20.4125   -2.6762   -9.1482 C   0  0  0  0  0  0  0  0  0  0  0  0
   19.7809   -3.2125   -8.3390 N   0  0  0  0  0  0  0  0  0  0  0  0
   22.5695   -1.8968  -10.0434 C   0  0  0  0  0  0  0  0  0  0  0  0
  1  2  1  1
  3  2  1  6
  2  4  1  1
  2  5  1  0
  5  6  1  1
  6  7  1  0
  7  8  2  0
  8  9  1  0
  9 10  1  0
  9 11  2  0
 11 12  1  0
 12 13  1  0
 13 14  3  0
 12 15  2  0
 15  7  1  0
M  END
$$$$
