_rank1
     RDKit          3D

 15 15  0  0  0  0  0  0  0  0999 V2000
   26.8725    0.1707   -9.5931 C   0  0  0  0  0  0  0  0  0  0  0  0
   25.9105    0.1103  -10.7529 C   0  0  1  0  0  0  0  0  0  0  0  0
   25.9899    1.3929  -11.5279 C   0  0  0  0  0  0  0  0  0  0  0  0
   26.3254   -0.9620  -11.6440 N   0  0  0  0  0  0  0  0  0  0  0  0
   24.5360   -0.2098  -10.2616 C   0  0  0  0  0  0  0  0  0  0  0  0
   23.5830   -0.2742  -11.3056 O   0  0  0  0  0  0  0  0  0  0  0  0
   22.2514   -0.4917  -10.9950 C   0  0  0  0  0  0  0  0  0  0  0  0
   21.6415   -1.7164  -11.1616 C   0  0  0  0  0  0  0  0  0  0  0  0
   20.3065   -1.9217  -10.8467 C   0  0  0  0  0  0  0  0  0  0  0  0
   19.7133   -3.1320  -11.0140 F   0  0  0  0  0  0  0  0  0  0  0  0
   19.5427   -0.8854  -10.3498 C   0  0  0  0  0  0  0  0  0  0  0  0
   20.1420    0.3585  -10.1750 C   0  0  0  0  0  0  0  0  0  0  0  0
   19.3429    1.4393   -9.6560 C   0  0  0  0  0  0  0  0  0  0  0  0
   18.6878    2.3055   -9.2536 N   0  0  0  0  0  0  0  0  0  0  0  0
   21.4709    0.5309  -10.4972 C   0  0  0  0  0  0  0  0  0  0  0  0
  1  2  1  1
  3  2  1  6
  2  4  1  6
  2  5  1  0
  5  6  1  1
  6  7  1  0
  7  8  2  0
  8  9  1  0
  9 10  1  0
  9 11  2  0
 11 12  1  0
 12 13  1  0
 13 14  3  0
 12 15  2  0
 15  7  1  0
M  END
$$$$
