_rank11
     RDKit          3D

 15 15  0  0  0  0  0  0  0  0999 V2000
   20.5499   -1.5959   -9.5275 C   0  0  0  0  0  0  0  0  0  0  0  0
   21.0594   -1.4878  -10.9427 C   0  0  1  0  0  0  0  0  0  0  0  0
   21.4920   -2.8442  -11.4171 C   0  0  0  0  0  0  0  0  0  0  0  0
   19.9644   -1.0573  -11.7981 N   0  0  0  0  0  0  0  0  0  0  0  0
   22.1350   -0.4533  -11.0218 C   0  0  0  0  0  0  0  0  0  0  0  0
   23.0252   -0.5044   -9.9231 O   0  0  0  0  0  0  0  0  0  0  0  0
   24.3747   -0.2774  -10.1333 C   0  0  0  0  0  0  0  0  0  0  0  0
   24.8818    0.0949  -11.3597 C   0  0  0  0  0  0  0  0  0  0  0  0
   26.2361    0.3194  -11.5577 C   0  0  0  0  0  0  0  0  0  0  0  0
   26.7274    0.6861  -12.7697 F   0  0  0  0  0  0  0  0  0  0  0  0
   27.1246    0.1727  -10.5122 C   0  0  0  0  0  0  0  0  0  0  0  0
   26.6303   -0.2028   -9.2665 C   0  0  0  0  0  0  0  0  0  0  0  0
   27.5597   -0.3554   -8.1761 C   0  0  0  0  0  0  0  0  0  0  0  0
   28.2968   -0.4939   -7.2936 N   0  0  0  0  0  0  0  0  0  0  0  0
   25.2791   -0.4187   -9.1015 C   0  0  0  0  0  0  0  0  0  0  0  0
  1  2  1  1
  3  2  1  6
  2  4  1  6
  2  5  1  0
  5  6  1  1
  6  7  1  0
  7  8  2  0
  8  9  1  0
  9 10  1  0
  9 11  2  0
 11 12  1  0
 12 13  1  0
 13 14  3  0
 12 15  2  0
 15  7  1  0
M  END
$$$$
