_rank14
     RDKit          3D

 15 15  0  0  0  0  0  0  0  0999 V2000
   20.7682   -2.3136  -11.1236 C   0  0  0  0  0  0  0  0  0  0  0  0
   21.1121   -1.0428  -10.3882 C   0  0  1  0  0  0  0  0  0  0  0  0
   20.7947    0.1351  -11.2620 C   0  0  0  0  0  0  0  0  0  0  0  0
   20.2679   -0.9476   -9.2073 N   0  0  0  0  0  0  0  0  0  0  0  0
   22.5343   -1.0849   -9.9310 C   0  0  0  0  0  0  0  0  0  0  0  0
   23.4398   -0.6275  -10.9175 O   0  0  0  0  0  0  0  0  0  0  0  0
   24.8006   -0.6961  -10.6719 C   0  0  0  0  0  0  0  0  0  0  0  0
   25.6942   -1.2101  -11.5868 C   0  0  0  0  0  0  0  0  0  0  0  0
   27.0556   -1.2735  -11.3290 C   0  0  0  0  0  0  0  0  0  0  0  0
   27.9293   -1.7817  -12.2362 F   0  0  0  0  0  0  0  0  0  0  0  0
   27.5572   -0.8148  -10.1281 C   0  0  0  0  0  0  0  0  0  0  0  0
   26.6693   -0.2923   -9.1922 C   0  0  0  0  0  0  0  0  0  0  0  0
   27.1951    0.1861   -7.9389 C   0  0  0  0  0  0  0  0  0  0  0  0
   27.6178    0.5889   -6.9387 N   0  0  0  0  0  0  0  0  0  0  0  0
   25.3220   -0.2430   -9.4780 C   0  0  0  0  0  0  0  0  0  0  0  0
  1  2  1  1
  3  2  1  6
  2  4  1  1
  2  5  1  0
  5  6  1  1
  6  7  1  0
  7  8  2  0
  8  9  1  0
  9 10  1  0
  9 11  2  0
 11 12  1  0
 12 13  1  0
 13 14  3  0
 12 15  2  0
 15  7  1  0
M  END
$$$$
