_rank13
     RDKit          3D

 15 15  0  0  0  0  0  0  0  0999 V2000
   20.7295    0.7446  -10.1793 C   0  0  0  0  0  0  0  0  0  0  0  0
   20.9900   -0.7311  -10.3485 C   0  0  1  0  0  0  0  0  0  0  0  0
   20.0654   -1.5019   -9.4524 C   0  0  0  0  0  0  0  0  0  0  0  0
   20.6765   -1.1031  -11.7194 N   0  0  0  0  0  0  0  0  0  0  0  0
   22.4363   -1.0256  -10.1143 C   0  0  0  0  0  0  0  0  0  0  0  0
   23.2578   -0.6268  -11.1952 O   0  0  0  0  0  0  0  0  0  0  0  0
   24.6216   -0.4947  -10.9969 C   0  0  0  0  0  0  0  0  0  0  0  0
   25.5335   -0.5920  -12.0258 C   0  0  0  0  0  0  0  0  0  0  0  0
   26.8977   -0.4577  -11.8142 C   0  0  0  0  0  0  0  0  0  0  0  0
   27.7895   -0.5551  -12.8340 F   0  0  0  0  0  0  0  0  0  0  0  0
   27.3835   -0.2190  -10.5449 C   0  0  0  0  0  0  0  0  0  0  0  0
   26.4771   -0.1177   -9.4936 C   0  0  0  0  0  0  0  0  0  0  0  0
   26.9865    0.1315   -8.1690 C   0  0  0  0  0  0  0  0  0  0  0  0
   27.3821    0.3199   -7.0970 N   0  0  0  0  0  0  0  0  0  0  0  0
   25.1275   -0.2559   -9.7360 C   0  0  0  0  0  0  0  0  0  0  0  0
  1  2  1  1
  3  2  1  6
  2  4  1  6
  2  5  1  0
  5  6  1  1
  6  7  1  0
  7  8  2  0
  8  9  1  0
  9 10  1  0
  9 11  2  0
 11 12  1  0
 12 13  1  0
 13 14  3  0
 12 15  2  0
 15  7  1  0
M  END
$$$$
