_rank2
     RDKit          3D

 15 15  0  0  0  0  0  0  0  0999 V2000
   26.9755   -0.4204   -9.8840 C   0  0  0  0  0  0  0  0  0  0  0  0
   26.0332    0.0709  -10.9540 C   0  0  1  0  0  0  0  0  0  0  0  0
   25.9759    1.5699  -10.9116 C   0  0  0  0  0  0  0  0  0  0  0  0
   26.5689   -0.3068  -12.2526 N   0  0  0  0  0  0  0  0  0  0  0  0
   24.6991   -0.5851  -10.8015 C   0  0  0  0  0  0  0  0  0  0  0  0
   23.6245    0.2822  -11.1103 O   0  0  0  0  0  0  0  0  0  0  0  0
   22.3328   -0.0986  -10.7892 C   0  0  0  0  0  0  0  0  0  0  0  0
   21.8917   -1.3990  -10.9084 C   0  0  0  0  0  0  0  0  0  0  0  0
   20.5948   -1.7681  -10.5834 C   0  0  0  0  0  0  0  0  0  0  0  0
   20.1684   -3.0520  -10.7040 F   0  0  0  0  0  0  0  0  0  0  0  0
   19.6985   -0.8247  -10.1244 C   0  0  0  0  0  0  0  0  0  0  0  0
   20.1265    0.4935   -9.9976 C   0  0  0  0  0  0  0  0  0  0  0  0
   19.1890    1.4771   -9.5181 C   0  0  0  0  0  0  0  0  0  0  0  0
   18.4438    2.2810   -9.1445 N   0  0  0  0  0  0  0  0  0  0  0  0
   21.4216    0.8289  -10.3287 C   0  0  0  0  0  0  0  0  0  0  0  0
  1  2  1  1
  3  2  1  6
  2  4  1  6
  2  5  1  0
  5  6  1  1
  6  7  1  0
  7  8  2  0
  8  9  1  0
  9 10  1  0
  9 11  2  0
 11 12  1  0
 12 13  1  0
 13 14  3  0
 12 15  2  0
 15  7  1  0
M  END
$$$$
