_rank3
     RDKit          3D

 15 15  0  0  0  0  0  0  0  0999 V2000
   20.2524   -2.1180  -11.7819 C   0  0  0  0  0  0  0  0  0  0  0  0
   20.9923   -1.3831  -10.6926 C   0  0  1  0  0  0  0  0  0  0  0  0
   20.3957   -0.0163  -10.5256 C   0  0  0  0  0  0  0  0  0  0  0  0
   20.8008   -2.0966   -9.4394 N   0  0  0  0  0  0  0  0  0  0  0  0
   22.4567   -1.3664  -10.9899 C   0  0  0  0  0  0  0  0  0  0  0  0
   23.1970   -0.6092  -10.0513 O   0  0  0  0  0  0  0  0  0  0  0  0
   24.5662   -0.4826  -10.2120 C   0  0  0  0  0  0  0  0  0  0  0  0
   25.1752   -0.5273  -11.4477 C   0  0  0  0  0  0  0  0  0  0  0  0
   26.5482   -0.3991  -11.5957 C   0  0  0  0  0  0  0  0  0  0  0  0
   27.1402   -0.4444  -12.8173 F   0  0  0  0  0  0  0  0  0  0  0  0
   27.3525   -0.2205  -10.4887 C   0  0  0  0  0  0  0  0  0  0  0  0
   26.7548   -0.1729   -9.2327 C   0  0  0  0  0  0  0  0  0  0  0  0
   27.5963    0.0137   -8.0780 C   0  0  0  0  0  0  0  0  0  0  0  0
   28.2599    0.1534   -7.1392 N   0  0  0  0  0  0  0  0  0  0  0  0
   25.3875   -0.3033   -9.1184 C   0  0  0  0  0  0  0  0  0  0  0  0
  1  2  1  1
  3  2  1  6
  2  4  1  1
  2  5  1  0
  5  6  1  1
  6  7  1  0
  7  8  2  0
  8  9  1  0
  9 10  1  0
  9 11  2  0
 11 12  1  0
 12 13  1  0
 13 14  3  0
 12 15  2  0
 15  7  1  0
M  END
$$$$
