_rank7
     RDKit          3D

 15 15  0  0  0  0  0  0  0  0999 V2000
   20.1559   -0.0889  -10.1364 C   0  0  0  0  0  0  0  0  0  0  0  0
   20.8904   -1.2471  -10.7635 C   0  0  1  0  0  0  0  0  0  0  0  0
   20.9101   -2.3988   -9.8017 C   0  0  0  0  0  0  0  0  0  0  0  0
   20.1555   -1.6783  -11.9426 N   0  0  0  0  0  0  0  0  0  0  0  0
   22.2497   -0.8116  -11.2062 C   0  0  0  0  0  0  0  0  0  0  0  0
   23.0437   -0.3280  -10.1395 O   0  0  0  0  0  0  0  0  0  0  0  0
   24.4192   -0.2764  -10.2880 C   0  0  0  0  0  0  0  0  0  0  0  0
   25.0362   -0.3648  -11.5173 C   0  0  0  0  0  0  0  0  0  0  0  0
   26.4155   -0.3118  -11.6531 C   0  0  0  0  0  0  0  0  0  0  0  0
   27.0154   -0.3997  -12.8684 F   0  0  0  0  0  0  0  0  0  0  0  0
   27.2180   -0.1666  -10.5399 C   0  0  0  0  0  0  0  0  0  0  0  0
   26.6122   -0.0758   -9.2902 C   0  0  0  0  0  0  0  0  0  0  0  0
   27.4518    0.0758   -8.1291 C   0  0  0  0  0  0  0  0  0  0  0  0
   28.1248    0.1784   -7.1922 N   0  0  0  0  0  0  0  0  0  0  0  0
   25.2389   -0.1317   -9.1880 C   0  0  0  0  0  0  0  0  0  0  0  0
  1  2  1  1
  3  2  1  6
  2  4  1  6
  2  5  1  0
  5  6  1  1
  6  7  1  0
  7  8  2  0
  8  9  1  0
  9 10  1  0
  9 11  2  0
 11 12  1  0
 12 13  1  0
 13 14  3  0
 12 15  2  0
 15  7  1  0
M  END
$$$$
