_rank15
     RDKit          3D

 15 15  0  0  0  0  0  0  0  0999 V2000
   27.3022   -0.5313  -11.6653 C   0  0  0  0  0  0  0  0  0  0  0  0
   26.6496    0.2598  -10.5597 C   0  0  1  0  0  0  0  0  0  0  0  0
   27.5559    0.2779   -9.3638 C   0  0  0  0  0  0  0  0  0  0  0  0
   26.4910    1.6355  -11.0053 N   0  0  0  0  0  0  0  0  0  0  0  0
   25.2888   -0.2875  -10.2732 C   0  0  0  0  0  0  0  0  0  0  0  0
   24.5984   -0.6782  -11.4449 O   0  0  0  0  0  0  0  0  0  0  0  0
   23.2496   -0.9806  -11.3675 C   0  0  0  0  0  0  0  0  0  0  0  0
   22.3473   -0.5996  -12.3372 C   0  0  0  0  0  0  0  0  0  0  0  0
   20.9981   -0.9086  -12.2482 C   0  0  0  0  0  0  0  0  0  0  0  0
   20.1157   -0.5292  -13.2084 F   0  0  0  0  0  0  0  0  0  0  0  0
   20.5180   -1.6183  -11.1665 C   0  0  0  0  0  0  0  0  0  0  0  0
   21.4149   -2.0114  -10.1775 C   0  0  0  0  0  0  0  0  0  0  0  0
   20.9115   -2.7523   -9.0488 C   0  0  0  0  0  0  0  0  0  0  0  0
   20.4968   -3.3592   -8.1539 N   0  0  0  0  0  0  0  0  0  0  0  0
   22.7497   -1.6890  -10.2947 C   0  0  0  0  0  0  0  0  0  0  0  0
  1  2  1  1
  3  2  1  6
  2  4  1  6
  2  5  1  0
  5  6  1  1
  6  7  1  0
  7  8  2  0
  8  9  1  0
  9 10  1  0
  9 11  2  0
 11 12  1  0
 12 13  1  0
 13 14  3  0
 12 15  2  0
 15  7  1  0
M  END
$$$$
