_rank18
     RDKit          3D

 15 15  0  0  0  0  0  0  0  0999 V2000
   26.7245    1.9683  -11.2145 C   0  0  0  0  0  0  0  0  0  0  0  0
   26.3447    0.5136  -11.3316 C   0  0  1  0  0  0  0  0  0  0  0  0
   26.8533   -0.0264  -12.6361 C   0  0  0  0  0  0  0  0  0  0  0  0
   27.0069   -0.2255  -10.2678 N   0  0  0  0  0  0  0  0  0  0  0  0
   24.8701    0.3534  -11.1499 C   0  0  0  0  0  0  0  0  0  0  0  0
   24.4657   -1.0024  -11.1272 O   0  0  0  0  0  0  0  0  0  0  0  0
   23.1151   -1.3068  -11.1391 C   0  0  0  0  0  0  0  0  0  0  0  0
   22.2906   -0.9806  -12.1943 C   0  0  0  0  0  0  0  0  0  0  0  0
   20.9389   -1.2911  -12.1944 C   0  0  0  0  0  0  0  0  0  0  0  0
   20.1335   -0.9658  -13.2385 F   0  0  0  0  0  0  0  0  0  0  0  0
   20.3767   -1.9463  -11.1179 C   0  0  0  0  0  0  0  0  0  0  0  0
   21.1943   -2.2837  -10.0433 C   0  0  0  0  0  0  0  0  0  0  0  0
   20.6053   -2.9678   -8.9202 C   0  0  0  0  0  0  0  0  0  0  0  0
   20.1142   -3.5149   -8.0254 N   0  0  0  0  0  0  0  0  0  0  0  0
   22.5339   -1.9613  -10.0731 C   0  0  0  0  0  0  0  0  0  0  0  0
  1  2  1  1
  3  2  1  6
  2  4  1  1
  2  5  1  0
  5  6  1  1
  6  7  1  0
  7  8  2  0
  8  9  1  0
  9 10  1  0
  9 11  2  0
 11 12  1  0
 12 13  1  0
 13 14  3  0
 12 15  2  0
 15  7  1  0
M  END
$$$$
