_rank13
     RDKit          3D

 25 27  0  0  0  0  0  0  0  0999 V2000
   17.8881    0.9072  -10.1369 C   0  0  0  0  0  0  0  0  0  0  0  0
   19.0983    0.0533  -10.2285 C   0  0  0  0  0  0  0  0  0  0  0  0
   19.0135   -1.2910  -10.0236 C   0  0  0  0  0  0  0  0  0  0  0  0
   20.1408   -2.0962  -10.1075 C   0  0  0  0  0  0  0  0  0  0  0  0
   20.0836   -3.4412   -9.9073 F   0  0  0  0  0  0  0  0  0  0  0  0
   21.3511   -1.4722  -10.4081 C   0  0  0  0  0  0  0  0  0  0  0  0
   21.4225   -0.1096  -10.6132 C   0  0  0  0  0  0  0  0  0  0  0  0
   22.6103    0.5361  -10.9129 O   0  0  0  0  0  0  0  0  0  0  0  0
   23.8231    0.1874  -10.3597 C   0  0  0  0  0  0  0  0  0  0  0  0
   23.8589   -0.4338   -9.1114 C   0  0  0  0  0  0  0  0  0  0  0  0
   25.1019   -0.7725   -8.5821 C   0  0  0  0  0  0  0  0  0  0  0  0
   26.2477   -0.5000   -9.2732 C   0  0  0  0  0  0  0  0  0  0  0  0
   27.7900   -0.9293   -8.5982 S   0  0  1  0  0  6  0  0  0  0  0  0
   28.8152    0.5381   -8.5295 C   0  0  0  0  0  0  0  0  0  0  0  0
   27.6162   -1.4621   -7.2060 O   0  0  0  0  0  0  0  0  0  0  0  0
   28.5245   -1.9214   -9.4511 O   0  0  0  0  0  0  0  0  0  0  0  0
   26.1733    0.1130  -10.4999 C   0  0  0  0  0  0  0  0  0  0  0  0
   24.9650    0.4695  -11.0696 C   0  0  0  0  0  0  0  0  0  0  0  0
   25.2038    1.1083  -12.3909 C   0  0  0  0  0  0  0  0  0  0  0  0
   26.5121    0.3974  -12.7693 C   0  0  2  0  0  0  0  0  0  0  0  0
   27.1514    0.9942  -13.7973 F   0  0  0  0  0  0  0  0  0  0  0  0
   26.2178   -0.9301  -12.9758 F   0  0  0  0  0  0  0  0  0  0  0  0
   27.2366    0.5184  -11.4451 C   0  0  1  0  0  0  0  0  0  0  0  0
   27.4870    1.8710  -11.2310 O   0  0  0  0  0  0  0  0  0  0  0  0
   20.2901    0.6750  -10.5255 C   0  0  0  0  0  0  0  0  0  0  0  0
  1  2  1  6
  2  3  2  0
  3  4  1  0
  4  5  1  0
  4  6  2  0
  6  7  1  0
  7  8  1  0
  8  9  1  0
  9 10  2  0
 10 11  1  0
 11 12  2  0
 13 12  1  6
 14 13  1  6
 13 15  2  0
 13 16  2  0
 12 17  1  0
 17 18  2  0
 19 18  1  6
 19 20  1  0
 20 21  1  6
 20 22  1  0
 20 23  1  0
 23 24  1  1
  7 25  2  0
 25  2  1  0
 18  9  1  0
 23 17  1  0
M  END
$$$$
