_rank14
     RDKit          3D

 25 27  0  0  0  0  0  0  0  0999 V2000
   18.7336   -3.2471  -10.5919 C   0  0  0  0  0  0  0  0  0  0  0  0
   19.4057   -1.9276  -10.4953 C   0  0  0  0  0  0  0  0  0  0  0  0
   18.7793   -0.8741   -9.9002 C   0  0  0  0  0  0  0  0  0  0  0  0
   19.4014    0.3629   -9.8061 C   0  0  0  0  0  0  0  0  0  0  0  0
   18.7980    1.4312   -9.2169 F   0  0  0  0  0  0  0  0  0  0  0  0
   20.6833    0.4764  -10.3431 C   0  0  0  0  0  0  0  0  0  0  0  0
   21.3059   -0.5990  -10.9430 C   0  0  0  0  0  0  0  0  0  0  0  0
   22.5778   -0.5148  -11.4843 O   0  0  0  0  0  0  0  0  0  0  0  0
   23.7244   -0.4670  -10.7217 C   0  0  0  0  0  0  0  0  0  0  0  0
   23.7033   -0.9495   -9.4132 C   0  0  0  0  0  0  0  0  0  0  0  0
   24.8801   -0.8856   -8.6710 C   0  0  0  0  0  0  0  0  0  0  0  0
   26.0175   -0.3636   -9.2175 C   0  0  0  0  0  0  0  0  0  0  0  0
   27.4769   -0.2915   -8.2775 S   0  0  1  0  0  6  0  0  0  0  0  0
   28.6631   -1.4417   -8.9696 C   0  0  0  0  0  0  0  0  0  0  0  0
   28.0587    1.0910   -8.3290 O   0  0  0  0  0  0  0  0  0  0  0  0
   27.2552   -0.7141   -6.8550 O   0  0  0  0  0  0  0  0  0  0  0  0
   26.0003    0.1020  -10.5094 C   0  0  0  0  0  0  0  0  0  0  0  0
   24.8588    0.0616  -11.2885 C   0  0  0  0  0  0  0  0  0  0  0  0
   25.1487    0.6311  -12.6311 C   0  0  0  0  0  0  0  0  0  0  0  0
   26.6420    0.2823  -12.7233 C   0  0  2  0  0  0  0  0  0  0  0  0
   27.2724    0.9468  -13.7148 F   0  0  0  0  0  0  0  0  0  0  0  0
   26.7440   -1.0869  -12.8014 F   0  0  0  0  0  0  0  0  0  0  0  0
   27.0687    0.7076  -11.3340 C   0  0  1  0  0  0  0  0  0  0  0  0
   26.9173    2.0895  -11.2580 O   0  0  0  0  0  0  0  0  0  0  0  0
   20.6711   -1.8219  -11.0272 C   0  0  0  0  0  0  0  0  0  0  0  0
  1  2  1  6
  2  3  2  0
  3  4  1  0
  4  5  1  0
  4  6  2  0
  6  7  1  0
  7  8  1  0
  8  9  1  0
  9 10  2  0
 10 11  1  0
 11 12  2  0
 13 12  1  6
 14 13  1  6
 13 15  2  0
 13 16  2  0
 12 17  1  0
 17 18  2  0
 19 18  1  6
 19 20  1  0
 20 21  1  6
 20 22  1  0
 20 23  1  0
 23 24  1  6
  7 25  2  0
 25  2  1  0
 18  9  1  0
 23 17  1  0
M  END
$$$$
