_rank17
     RDKit          3D

 25 27  0  0  0  0  0  0  0  0999 V2000
   19.2198   -1.5466   -8.0580 C   0  0  0  0  0  0  0  0  0  0  0  0
   19.6542   -0.9824   -9.3600 C   0  0  0  0  0  0  0  0  0  0  0  0
   18.8565   -0.1090  -10.0362 C   0  0  0  0  0  0  0  0  0  0  0  0
   19.2559    0.4228  -11.2543 C   0  0  0  0  0  0  0  0  0  0  0  0
   18.4783    1.2969  -11.9499 F   0  0  0  0  0  0  0  0  0  0  0  0
   20.4980    0.0261  -11.7486 C   0  0  0  0  0  0  0  0  0  0  0  0
   21.2957   -0.8593  -11.0532 C   0  0  0  0  0  0  0  0  0  0  0  0
   22.5330   -1.2703  -11.5201 O   0  0  0  0  0  0  0  0  0  0  0  0
   23.7166   -1.0022  -10.8677 C   0  0  0  0  0  0  0  0  0  0  0  0
   23.9299   -1.5135   -9.5876 C   0  0  0  0  0  0  0  0  0  0  0  0
   25.1376   -1.2229   -8.9575 C   0  0  0  0  0  0  0  0  0  0  0  0
   26.0800   -0.4581   -9.5833 C   0  0  0  0  0  0  0  0  0  0  0  0
   27.5812   -0.1052   -8.7828 S   0  0  1  0  0  6  0  0  0  0  0  0
   27.2482    0.9604   -7.3819 C   0  0  0  0  0  0  0  0  0  0  0  0
   28.2138   -1.3721   -8.2859 O   0  0  0  0  0  0  0  0  0  0  0  0
   28.5328    0.6431   -9.6693 O   0  0  0  0  0  0  0  0  0  0  0  0
   25.8347    0.0281  -10.8441 C   0  0  0  0  0  0  0  0  0  0  0  0
   24.6528   -0.2312  -11.5130 C   0  0  0  0  0  0  0  0  0  0  0  0
   24.6795    0.4228  -12.8482 C   0  0  0  0  0  0  0  0  0  0  0  0
   26.1953    0.3995  -13.0974 C   0  0  2  0  0  0  0  0  0  0  0  0
   26.5695    1.2085  -14.1110 F   0  0  0  0  0  0  0  0  0  0  0  0
   26.5702   -0.9148  -13.2502 F   0  0  0  0  0  0  0  0  0  0  0  0
   26.6644    0.8675  -11.7358 C   0  0  1  0  0  0  0  0  0  0  0  0
   26.2386    2.1838  -11.5798 O   0  0  0  0  0  0  0  0  0  0  0  0
   20.8813   -1.3778   -9.8428 C   0  0  0  0  0  0  0  0  0  0  0  0
  1  2  1  6
  2  3  2  0
  3  4  1  0
  4  5  1  0
  4  6  2  0
  6  7  1  0
  7  8  1  0
  8  9  1  0
  9 10  2  0
 10 11  1  0
 11 12  2  0
 13 12  1  6
 14 13  1  6
 13 15  2  0
 13 16  2  0
 12 17  1  0
 17 18  2  0
 19 18  1  6
 19 20  1  0
 20 21  1  6
 20 22  1  0
 20 23  1  0
 23 24  1  1
  7 25  2  0
 25  2  1  0
 18  9  1  0
 23 17  1  0
M  END
$$$$
