_rank2
     RDKit          3D

 25 27  0  0  0  0  0  0  0  0999 V2000
   18.8371   -2.9496  -11.1329 C   0  0  0  0  0  0  0  0  0  0  0  0
   19.5243   -1.6548  -10.9016 C   0  0  0  0  0  0  0  0  0  0  0  0
   18.9370   -0.6853  -10.1456 C   0  0  0  0  0  0  0  0  0  0  0  0
   19.5733    0.5282   -9.9249 C   0  0  0  0  0  0  0  0  0  0  0  0
   19.0089    1.5130   -9.1739 F   0  0  0  0  0  0  0  0  0  0  0  0
   20.8280    0.7071  -10.5065 C   0  0  0  0  0  0  0  0  0  0  0  0
   21.4111   -0.2834  -11.2700 C   0  0  0  0  0  0  0  0  0  0  0  0
   22.6552   -0.1329  -11.8591 O   0  0  0  0  0  0  0  0  0  0  0  0
   23.8374   -0.1630  -11.1520 C   0  0  0  0  0  0  0  0  0  0  0  0
   23.8689   -0.7460   -9.8852 C   0  0  0  0  0  0  0  0  0  0  0  0
   25.0806   -0.7590   -9.1985 C   0  0  0  0  0  0  0  0  0  0  0  0
   26.2008   -0.2139   -9.7579 C   0  0  0  0  0  0  0  0  0  0  0  0
   27.7042   -0.2387   -8.8874 S   0  0  1  0  0  6  0  0  0  0  0  0
   28.1000    1.4322   -8.3773 C   0  0  0  0  0  0  0  0  0  0  0  0
   27.5810   -1.1001   -7.6647 O   0  0  0  0  0  0  0  0  0  0  0  0
   28.8458   -0.7036   -9.7430 O   0  0  0  0  0  0  0  0  0  0  0  0
   26.1315    0.3515  -11.0075 C   0  0  0  0  0  0  0  0  0  0  0  0
   24.9538    0.3902  -11.7308 C   0  0  0  0  0  0  0  0  0  0  0  0
   25.1909    1.0584  -13.0379 C   0  0  0  0  0  0  0  0  0  0  0  0
   26.6711    0.6943  -13.2294 C   0  0  2  0  0  0  0  0  0  0  0  0
   27.2667    1.4241  -14.1961 F   0  0  0  0  0  0  0  0  0  0  0  0
   26.7424   -0.6661  -13.4181 F   0  0  0  0  0  0  0  0  0  0  0  0
   27.1714    1.0027  -11.8338 C   0  0  1  0  0  0  0  0  0  0  0  0
   27.0509    2.3766  -11.6439 O   0  0  0  0  0  0  0  0  0  0  0  0
   20.7626   -1.4840  -11.4784 C   0  0  0  0  0  0  0  0  0  0  0  0
  1  2  1  6
  2  3  2  0
  3  4  1  0
  4  5  1  0
  4  6  2  0
  6  7  1  0
  7  8  1  0
  8  9  1  0
  9 10  2  0
 10 11  1  0
 11 12  2  0
 13 12  1  6
 14 13  1  6
 13 15  2  0
 13 16  2  0
 12 17  1  0
 17 18  2  0
 19 18  1  6
 19 20  1  0
 20 21  1  6
 20 22  1  0
 20 23  1  0
 23 24  1  1
  7 25  2  0
 25  2  1  0
 18  9  1  0
 23 17  1  0
M  END
$$$$
