_rank4
     RDKit          3D

 25 27  0  0  0  0  0  0  0  0999 V2000
   19.0901   -3.1989  -10.8168 C   0  0  0  0  0  0  0  0  0  0  0  0
   19.5962   -1.8204  -10.6029 C   0  0  0  0  0  0  0  0  0  0  0  0
   18.8516   -0.9088   -9.9166 C   0  0  0  0  0  0  0  0  0  0  0  0
   19.3181    0.3822   -9.7125 C   0  0  0  0  0  0  0  0  0  0  0  0
   18.5946    1.3118   -9.0306 F   0  0  0  0  0  0  0  0  0  0  0  0
   20.5707    0.6997  -10.2367 C   0  0  0  0  0  0  0  0  0  0  0  0
   21.3141   -0.2335  -10.9298 C   0  0  0  0  0  0  0  0  0  0  0  0
   22.5603    0.0542  -11.4610 O   0  0  0  0  0  0  0  0  0  0  0  0
   23.7302   -0.0301  -10.7381 C   0  0  0  0  0  0  0  0  0  0  0  0
   23.6936   -0.4716   -9.4155 C   0  0  0  0  0  0  0  0  0  0  0  0
   24.8949   -0.5445   -8.7143 C   0  0  0  0  0  0  0  0  0  0  0  0
   26.0702   -0.1916   -9.3133 C   0  0  0  0  0  0  0  0  0  0  0  0
   27.5597   -0.2885   -8.4241 S   0  0  1  0  0  6  0  0  0  0  0  0
   27.8100    1.2566   -7.5530 C   0  0  0  0  0  0  0  0  0  0  0  0
   27.4927   -1.4027   -7.4209 O   0  0  0  0  0  0  0  0  0  0  0  0
   28.7462   -0.4655   -9.3253 O   0  0  0  0  0  0  0  0  0  0  0  0
   26.0672    0.2387  -10.6175 C   0  0  0  0  0  0  0  0  0  0  0  0
   24.9027    0.3292  -11.3574 C   0  0  0  0  0  0  0  0  0  0  0  0
   25.2158    0.8206  -12.7254 C   0  0  0  0  0  0  0  0  0  0  0  0
   26.6462    0.2754  -12.8556 C   0  0  2  0  0  0  0  0  0  0  0  0
   27.3218    0.8249  -13.8869 F   0  0  0  0  0  0  0  0  0  0  0  0
   26.5649   -1.0969  -12.8953 F   0  0  0  0  0  0  0  0  0  0  0  0
   27.1752    0.6764  -11.4945 C   0  0  1  0  0  0  0  0  0  0  0  0
   27.2091    2.0676  -11.4557 O   0  0  0  0  0  0  0  0  0  0  0  0
   20.8333   -1.5130  -11.1228 C   0  0  0  0  0  0  0  0  0  0  0  0
  1  2  1  6
  2  3  2  0
  3  4  1  0
  4  5  1  0
  4  6  2  0
  6  7  1  0
  7  8  1  0
  8  9  1  0
  9 10  2  0
 10 11  1  0
 11 12  2  0
 13 12  1  6
 14 13  1  6
 13 15  2  0
 13 16  2  0
 12 17  1  0
 17 18  2  0
 19 18  1  6
 19 20  1  0
 20 21  1  6
 20 22  1  0
 20 23  1  0
 23 24  1  6
  7 25  2  0
 25  2  1  0
 18  9  1  0
 23 17  1  0
M  END
$$$$
