_rank9
     RDKit          3D

 25 27  0  0  0  0  0  0  0  0999 V2000
   18.8525    1.4524   -9.2169 C   0  0  0  0  0  0  0  0  0  0  0  0
   19.5349    0.3203   -9.8914 C   0  0  0  0  0  0  0  0  0  0  0  0
   18.9386   -0.9026   -9.9641 C   0  0  0  0  0  0  0  0  0  0  0  0
   19.5704   -1.9662  -10.5932 C   0  0  0  0  0  0  0  0  0  0  0  0
   18.9970   -3.1975  -10.6796 F   0  0  0  0  0  0  0  0  0  0  0  0
   20.8301   -1.7277  -11.1415 C   0  0  0  0  0  0  0  0  0  0  0  0
   21.4224   -0.4840  -11.0606 C   0  0  0  0  0  0  0  0  0  0  0  0
   22.6718   -0.2190  -11.5958 O   0  0  0  0  0  0  0  0  0  0  0  0
   23.8286   -0.2011  -10.8476 C   0  0  0  0  0  0  0  0  0  0  0  0
   23.8161   -0.7017   -9.5458 C   0  0  0  0  0  0  0  0  0  0  0  0
   25.0032   -0.6680   -8.8181 C   0  0  0  0  0  0  0  0  0  0  0  0
   26.1421   -0.1572   -9.3720 C   0  0  0  0  0  0  0  0  0  0  0  0
   27.6144   -0.1228   -8.4501 S   0  0  1  0  0  6  0  0  0  0  0  0
   28.6773   -1.4491   -9.0158 C   0  0  0  0  0  0  0  0  0  0  0  0
   28.3233    1.1841   -8.6544 O   0  0  0  0  0  0  0  0  0  0  0  0
   27.3730   -0.3652   -6.9892 O   0  0  0  0  0  0  0  0  0  0  0  0
   26.1163    0.3269  -10.6570 C   0  0  0  0  0  0  0  0  0  0  0  0
   24.9644    0.3165  -11.4217 C   0  0  0  0  0  0  0  0  0  0  0  0
   25.2468    0.9001  -12.7598 C   0  0  0  0  0  0  0  0  0  0  0  0
   26.7327    0.5279  -12.8762 C   0  0  2  0  0  0  0  0  0  0  0  0
   27.3615    1.1958  -13.8664 F   0  0  0  0  0  0  0  0  0  0  0  0
   26.8107   -0.8416  -12.9748 F   0  0  0  0  0  0  0  0  0  0  0  0
   27.1842    0.9263  -11.4868 C   0  0  1  0  0  0  0  0  0  0  0  0
   27.0571    2.3092  -11.3895 O   0  0  0  0  0  0  0  0  0  0  0  0
   20.7783    0.5619  -10.4307 C   0  0  0  0  0  0  0  0  0  0  0  0
  1  2  1  6
  2  3  2  0
  3  4  1  0
  4  5  1  0
  4  6  2  0
  6  7  1  0
  7  8  1  0
  8  9  1  0
  9 10  2  0
 10 11  1  0
 11 12  2  0
 13 12  1  6
 14 13  1  6
 13 15  2  0
 13 16  2  0
 12 17  1  0
 17 18  2  0
 19 18  1  6
 19 20  1  0
 20 21  1  6
 20 22  1  0
 20 23  1  0
 23 24  1  6
  7 25  2  0
 25  2  1  0
 18  9  1  0
 23 17  1  0
M  END
$$$$
