_rank15
     RDKit          3D

 25 27  0  0  0  0  0  0  0  0999 V2000
   19.1085    1.6742   -9.2399 C   0  0  0  0  0  0  0  0  0  0  0  0
   19.6531    0.4682   -9.9117 C   0  0  0  0  0  0  0  0  0  0  0  0
   18.9487   -0.6980   -9.9172 C   0  0  0  0  0  0  0  0  0  0  0  0
   19.4514   -1.8300  -10.5433 C   0  0  0  0  0  0  0  0  0  0  0  0
   18.7683   -3.0071  -10.5634 F   0  0  0  0  0  0  0  0  0  0  0  0
   20.6972   -1.7195  -11.1599 C   0  0  0  0  0  0  0  0  0  0  0  0
   21.3998   -0.5320  -11.1466 C   0  0  0  0  0  0  0  0  0  0  0  0
   22.6383   -0.3939  -11.7505 O   0  0  0  0  0  0  0  0  0  0  0  0
   23.8234   -0.3538  -11.0488 C   0  0  0  0  0  0  0  0  0  0  0  0
   23.9169   -0.9978   -9.8151 C   0  0  0  0  0  0  0  0  0  0  0  0
   25.1297   -0.9370   -9.1331 C   0  0  0  0  0  0  0  0  0  0  0  0
   26.1918   -0.2633   -9.6651 C   0  0  0  0  0  0  0  0  0  0  0  0
   27.6975   -0.1973   -8.8009 S   0  0  1  0  0  6  0  0  0  0  0  0
   27.4229   -0.7659   -7.1245 C   0  0  0  0  0  0  0  0  0  0  0  0
   28.7097   -1.0922   -9.4542 O   0  0  0  0  0  0  0  0  0  0  0  0
   28.2274    1.2024   -8.6935 O   0  0  0  0  0  0  0  0  0  0  0  0
   26.0624    0.3590  -10.8826 C   0  0  0  0  0  0  0  0  0  0  0  0
   24.8808    0.3286  -11.5999 C   0  0  0  0  0  0  0  0  0  0  0  0
   25.0468    1.0840  -12.8700 C   0  0  0  0  0  0  0  0  0  0  0  0
   26.5525    0.8667  -13.0843 C   0  0  2  0  0  0  0  0  0  0  0  0
   27.0724    1.6980  -14.0120 F   0  0  0  0  0  0  0  0  0  0  0  0
   26.7455   -0.4696  -13.3456 F   0  0  0  0  0  0  0  0  0  0  0  0
   27.0329    1.1450  -11.6754 C   0  0  1  0  0  0  0  0  0  0  0  0
   26.7896    2.4902  -11.4120 O   0  0  0  0  0  0  0  0  0  0  0  0
   20.8834    0.5835  -10.5186 C   0  0  0  0  0  0  0  0  0  0  0  0
  1  2  1  6
  2  3  2  0
  3  4  1  0
  4  5  1  0
  4  6  2  0
  6  7  1  0
  7  8  1  0
  8  9  1  0
  9 10  2  0
 10 11  1  0
 11 12  2  0
 13 12  1  6
 14 13  1  6
 13 15  2  0
 13 16  2  0
 12 17  1  0
 17 18  2  0
 19 18  1  6
 19 20  1  0
 20 21  1  6
 20 22  1  0
 20 23  1  0
 23 24  1  1
  7 25  2  0
 25  2  1  0
 18  9  1  0
 23 17  1  0
M  END
$$$$
