_rank10
     RDKit          3D

 25 27  0  0  0  0  0  0  0  0999 V2000
   18.3521   -2.8529  -11.1729 C   0  0  0  0  0  0  0  0  0  0  0  0
   19.2833   -1.7298  -10.9013 C   0  0  0  0  0  0  0  0  0  0  0  0
   18.8728   -0.6503  -10.1786 C   0  0  0  0  0  0  0  0  0  0  0  0
   19.7378    0.4040   -9.9205 C   0  0  0  0  0  0  0  0  0  0  0  0
   19.3532    1.4937   -9.2015 F   0  0  0  0  0  0  0  0  0  0  0  0
   21.0324    0.3079  -10.4297 C   0  0  0  0  0  0  0  0  0  0  0  0
   21.4347   -0.7914  -11.1601 C   0  0  0  0  0  0  0  0  0  0  0  0
   22.7135   -0.9131  -11.6775 O   0  0  0  0  0  0  0  0  0  0  0  0
   23.8548   -0.7070  -10.9336 C   0  0  0  0  0  0  0  0  0  0  0  0
   23.9125   -1.1647   -9.6173 C   0  0  0  0  0  0  0  0  0  0  0  0
   25.0815   -0.9393   -8.8945 C   0  0  0  0  0  0  0  0  0  0  0  0
   26.1362   -0.2876   -9.4670 C   0  0  0  0  0  0  0  0  0  0  0  0
   27.5872   -0.0147   -8.5510 S   0  0  1  0  0  6  0  0  0  0  0  0
   28.8073   -1.2353   -9.0309 C   0  0  0  0  0  0  0  0  0  0  0  0
   28.1331    1.3529   -8.8402 O   0  0  0  0  0  0  0  0  0  0  0  0
   27.3672   -0.1902   -7.0771 O   0  0  0  0  0  0  0  0  0  0  0  0
   26.0429    0.1489  -10.7658 C   0  0  0  0  0  0  0  0  0  0  0  0
   24.9055   -0.0496  -11.5264 C   0  0  0  0  0  0  0  0  0  0  0  0
   25.1031    0.5279  -12.8823 C   0  0  0  0  0  0  0  0  0  0  0  0
   26.6272    0.3691  -12.9920 C   0  0  2  0  0  0  0  0  0  0  0  0
   27.1551    1.0900  -14.0037 F   0  0  0  0  0  0  0  0  0  0  0  0
   26.9007   -0.9775  -13.0495 F   0  0  0  0  0  0  0  0  0  0  0  0
   27.0151    0.8698  -11.6165 C   0  0  1  0  0  0  0  0  0  0  0  0
   26.6909    2.2225  -11.5604 O   0  0  0  0  0  0  0  0  0  0  0  0
   20.5599   -1.8304  -11.4066 C   0  0  0  0  0  0  0  0  0  0  0  0
  1  2  1  6
  2  3  2  0
  3  4  1  0
  4  5  1  0
  4  6  2  0
  6  7  1  0
  7  8  1  0
  8  9  1  0
  9 10  2  0
 10 11  1  0
 11 12  2  0
 13 12  1  6
 14 13  1  6
 13 15  2  0
 13 16  2  0
 12 17  1  0
 17 18  2  0
 19 18  1  6
 19 20  1  0
 20 21  1  6
 20 22  1  0
 20 23  1  0
 23 24  1  6
  7 25  2  0
 25  2  1  0
 18  9  1  0
 23 17  1  0
M  END
$$$$
