_rank18
     RDKit          3D

 25 27  0  0  0  0  0  0  0  0999 V2000
   18.0467   -0.2493  -12.4612 C   0  0  0  0  0  0  0  0  0  0  0  0
   19.2078   -0.5890  -11.6018 C   0  0  0  0  0  0  0  0  0  0  0  0
   19.0182   -1.0643  -10.3391 C   0  0  0  0  0  0  0  0  0  0  0  0
   20.0990   -1.3842   -9.5294 C   0  0  0  0  0  0  0  0  0  0  0  0
   19.9374   -1.8605   -8.2647 F   0  0  0  0  0  0  0  0  0  0  0  0
   21.3741   -1.1986  -10.0624 C   0  0  0  0  0  0  0  0  0  0  0  0
   21.5516   -0.7164  -11.3430 C   0  0  0  0  0  0  0  0  0  0  0  0
   22.8056   -0.5224  -11.8976 O   0  0  0  0  0  0  0  0  0  0  0  0
   23.9524   -0.3801  -11.1472 C   0  0  0  0  0  0  0  0  0  0  0  0
   23.9677   -0.8134   -9.8215 C   0  0  0  0  0  0  0  0  0  0  0  0
   25.1436   -0.6542   -9.0923 C   0  0  0  0  0  0  0  0  0  0  0  0
   26.2454   -0.0885   -9.6677 C   0  0  0  0  0  0  0  0  0  0  0  0
   27.7042    0.1026   -8.7436 S   0  0  1  0  0  6  0  0  0  0  0  0
   27.3111   -0.0803   -7.0056 C   0  0  0  0  0  0  0  0  0  0  0  0
   28.7018   -0.9512   -9.1262 O   0  0  0  0  0  0  0  0  0  0  0  0
   28.2998    1.4706   -8.9031 O   0  0  0  0  0  0  0  0  0  0  0  0
   26.1929    0.3264  -10.9758 C   0  0  0  0  0  0  0  0  0  0  0  0
   25.0507    0.1911  -11.7430 C   0  0  0  0  0  0  0  0  0  0  0  0
   25.2986    0.7255  -13.1083 C   0  0  0  0  0  0  0  0  0  0  0  0
   26.8089    0.4599  -13.2003 C   0  0  2  0  0  0  0  0  0  0  0  0
   27.3935    1.1218  -14.2212 F   0  0  0  0  0  0  0  0  0  0  0  0
   26.9893   -0.9031  -13.2283 F   0  0  0  0  0  0  0  0  0  0  0  0
   27.2193    0.9610  -11.8315 C   0  0  1  0  0  0  0  0  0  0  0  0
   26.9888    2.3337  -11.8056 O   0  0  0  0  0  0  0  0  0  0  0  0
   20.4640   -0.4036  -12.1336 C   0  0  0  0  0  0  0  0  0  0  0  0
  1  2  1  6
  2  3  2  0
  3  4  1  0
  4  5  1  0
  4  6  2  0
  6  7  1  0
  7  8  1  0
  8  9  1  0
  9 10  2  0
 10 11  1  0
 11 12  2  0
 13 12  1  6
 14 13  1  6
 13 15  2  0
 13 16  2  0
 12 17  1  0
 17 18  2  0
 19 18  1  6
 19 20  1  0
 20 21  1  6
 20 22  1  0
 20 23  1  0
 23 24  1  6
  7 25  2  0
 25  2  1  0
 18  9  1  0
 23 17  1  0
M  END
$$$$
