_rank16
     RDKit          3D

 25 27  0  0  0  0  0  0  0  0999 V2000
   19.6958    1.5715   -9.4314 C   0  0  0  0  0  0  0  0  0  0  0  0
   19.9091    0.3027  -10.1711 C   0  0  0  0  0  0  0  0  0  0  0  0
   18.8657   -0.5380  -10.4177 C   0  0  0  0  0  0  0  0  0  0  0  0
   19.0572   -1.7262  -11.1088 C   0  0  0  0  0  0  0  0  0  0  0  0
   18.0324   -2.5835  -11.3683 F   0  0  0  0  0  0  0  0  0  0  0  0
   20.3530   -2.0166  -11.5342 C   0  0  0  0  0  0  0  0  0  0  0  0
   21.4005   -1.1559  -11.2775 C   0  0  0  0  0  0  0  0  0  0  0  0
   22.6968   -1.4188  -11.6880 O   0  0  0  0  0  0  0  0  0  0  0  0
   23.8111   -1.0079  -10.9895 C   0  0  0  0  0  0  0  0  0  0  0  0
   23.9659   -1.3828   -9.6550 C   0  0  0  0  0  0  0  0  0  0  0  0
   25.1043   -0.9498   -8.9793 C   0  0  0  0  0  0  0  0  0  0  0  0
   26.0369   -0.1802   -9.6139 C   0  0  0  0  0  0  0  0  0  0  0  0
   27.4512    0.3514   -8.7561 S   0  0  1  0  0  6  0  0  0  0  0  0
   27.0358    0.5376   -7.0236 C   0  0  0  0  0  0  0  0  0  0  0  0
   28.5472   -0.6659   -8.8830 O   0  0  0  0  0  0  0  0  0  0  0  0
   27.9263    1.6949   -9.2260 O   0  0  0  0  0  0  0  0  0  0  0  0
   25.8504    0.1694  -10.9289 C   0  0  0  0  0  0  0  0  0  0  0  0
   24.7384   -0.2343  -11.6445 C   0  0  0  0  0  0  0  0  0  0  0  0
   24.8171    0.2945  -13.0320 C   0  0  0  0  0  0  0  0  0  0  0  0
   26.3450    0.3572  -13.1796 C   0  0  2  0  0  0  0  0  0  0  0  0
   26.7366    1.0944  -14.2403 F   0  0  0  0  0  0  0  0  0  0  0  0
   26.8148   -0.9354  -13.1804 F   0  0  0  0  0  0  0  0  0  0  0  0
   26.6848    0.9807  -11.8421 C   0  0  1  0  0  0  0  0  0  0  0  0
   26.1639    2.2717  -11.8416 O   0  0  0  0  0  0  0  0  0  0  0  0
   21.1905    0.0216  -10.5885 C   0  0  0  0  0  0  0  0  0  0  0  0
  1  2  1  6
  2  3  2  0
  3  4  1  0
  4  5  1  0
  4  6  2  0
  6  7  1  0
  7  8  1  0
  8  9  1  0
  9 10  2  0
 10 11  1  0
 11 12  2  0
 13 12  1  6
 14 13  1  6
 13 15  2  0
 13 16  2  0
 12 17  1  0
 17 18  2  0
 19 18  1  6
 19 20  1  0
 20 21  1  6
 20 22  1  0
 20 23  1  0
 23 24  1  6
  7 25  2  0
 25  2  1  0
 18  9  1  0
 23 17  1  0
M  END
$$$$
