_rank20
     RDKit          3D

 25 27  0  0  0  0  0  0  0  0999 V2000
   19.5128    1.5839   -9.2620 C   0  0  0  0  0  0  0  0  0  0  0  0
   19.8582    0.4858  -10.1984 C   0  0  0  0  0  0  0  0  0  0  0  0
   19.0854    0.2420  -11.2938 C   0  0  0  0  0  0  0  0  0  0  0  0
   19.4019   -0.7831  -12.1741 C   0  0  0  0  0  0  0  0  0  0  0  0
   18.6471   -1.0477  -13.2753 F   0  0  0  0  0  0  0  0  0  0  0  0
   20.5352   -1.5438  -11.8886 C   0  0  0  0  0  0  0  0  0  0  0  0
   21.3089   -1.2859  -10.7756 C   0  0  0  0  0  0  0  0  0  0  0  0
   22.4389   -2.0249  -10.4678 O   0  0  0  0  0  0  0  0  0  0  0  0
   23.6166   -1.4611  -10.0280 C   0  0  0  0  0  0  0  0  0  0  0  0
   24.0575   -1.7100   -8.7283 C   0  0  0  0  0  0  0  0  0  0  0  0
   25.2522   -1.1240   -8.3169 C   0  0  0  0  0  0  0  0  0  0  0  0
   25.9648   -0.3298   -9.1690 C   0  0  0  0  0  0  0  0  0  0  0  0
   27.4532    0.3934   -8.6395 S   0  0  1  0  0  6  0  0  0  0  0  0
   27.1048    1.4779   -7.2571 C   0  0  0  0  0  0  0  0  0  0  0  0
   28.4139   -0.6682   -8.1898 O   0  0  0  0  0  0  0  0  0  0  0  0
   28.0770    1.2480   -9.7035 O   0  0  0  0  0  0  0  0  0  0  0  0
   25.4993   -0.1073  -10.4418 C   0  0  0  0  0  0  0  0  0  0  0  0
   24.3198   -0.6651  -10.8994 C   0  0  0  0  0  0  0  0  0  0  0  0
   24.0814   -0.2472  -12.3063 C   0  0  0  0  0  0  0  0  0  0  0  0
   25.5396   -0.0622  -12.7531 C   0  0  2  0  0  0  0  0  0  0  0  0
   25.6469    0.6171  -13.9145 F   0  0  0  0  0  0  0  0  0  0  0  0
   26.1308   -1.3038  -12.7633 F   0  0  0  0  0  0  0  0  0  0  0  0
   26.0593    0.6967  -11.5501 C   0  0  1  0  0  0  0  0  0  0  0  0
   25.4183    1.9324  -11.5301 O   0  0  0  0  0  0  0  0  0  0  0  0
   20.9781   -0.2617   -9.9113 C   0  0  0  0  0  0  0  0  0  0  0  0
  1  2  1  6
  2  3  2  0
  3  4  1  0
  4  5  1  0
  4  6  2  0
  6  7  1  0
  7  8  1  0
  8  9  1  0
  9 10  2  0
 10 11  1  0
 11 12  2  0
 13 12  1  6
 14 13  1  6
 13 15  2  0
 13 16  2  0
 12 17  1  0
 17 18  2  0
 19 18  1  6
 19 20  1  0
 20 21  1  6
 20 22  1  0
 20 23  1  0
 23 24  1  6
  7 25  2  0
 25  2  1  0
 18  9  1  0
 23 17  1  0
M  END
$$$$
