_rank12
     RDKit          3D

 25 27  0  0  0  0  0  0  0  0999 V2000
   19.0942   -3.2841  -10.9930 C   0  0  0  0  0  0  0  0  0  0  0  0
   19.6788   -1.9414  -10.7535 C   0  0  0  0  0  0  0  0  0  0  0  0
   19.0004   -1.0115  -10.0245 C   0  0  0  0  0  0  0  0  0  0  0  0
   19.5406    0.2464   -9.7962 C   0  0  0  0  0  0  0  0  0  0  0  0
   18.8840    1.1932   -9.0717 F   0  0  0  0  0  0  0  0  0  0  0  0
   20.7962    0.5114  -10.3417 C   0  0  0  0  0  0  0  0  0  0  0  0
   21.4722   -0.4397  -11.0781 C   0  0  0  0  0  0  0  0  0  0  0  0
   22.7197   -0.2039  -11.6312 O   0  0  0  0  0  0  0  0  0  0  0  0
   23.8877   -0.2185  -10.9006 C   0  0  0  0  0  0  0  0  0  0  0  0
   23.8915   -0.7631   -9.6165 C   0  0  0  0  0  0  0  0  0  0  0  0
   25.0897   -0.7615   -8.9063 C   0  0  0  0  0  0  0  0  0  0  0  0
   26.2235   -0.2391   -9.4599 C   0  0  0  0  0  0  0  0  0  0  0  0
   27.7097   -0.2451   -8.5600 S   0  0  1  0  0  6  0  0  0  0  0  0
   27.9135   -1.8537   -7.7987 C   0  0  0  0  0  0  0  0  0  0  0  0
   28.8714    0.0057   -9.4763 O   0  0  0  0  0  0  0  0  0  0  0  0
   27.6983    0.7558   -7.4422 O   0  0  0  0  0  0  0  0  0  0  0  0
   26.1815    0.2887  -10.7271 C   0  0  0  0  0  0  0  0  0  0  0  0
   25.0182    0.3114  -11.4740 C   0  0  0  0  0  0  0  0  0  0  0  0
   25.2842    0.9385  -12.7957 C   0  0  0  0  0  0  0  0  0  0  0  0
   26.7657    0.5614  -12.9474 C   0  0  2  0  0  0  0  0  0  0  0  0
   27.3839    1.2588  -13.9238 F   0  0  0  0  0  0  0  0  0  0  0  0
   26.8331   -0.8044  -13.0936 F   0  0  0  0  0  0  0  0  0  0  0  0
   27.2407    0.9094  -11.5523 C   0  0  1  0  0  0  0  0  0  0  0  0
   27.1242    2.2890  -11.4061 O   0  0  0  0  0  0  0  0  0  0  0  0
   20.9186   -1.6856  -11.2946 C   0  0  0  0  0  0  0  0  0  0  0  0
  1  2  1  6
  2  3  2  0
  3  4  1  0
  4  5  1  0
  4  6  2  0
  6  7  1  0
  7  8  1  0
  8  9  1  0
  9 10  2  0
 10 11  1  0
 11 12  2  0
 13 12  1  6
 14 13  1  6
 13 15  2  0
 13 16  2  0
 12 17  1  0
 17 18  2  0
 19 18  1  6
 19 20  1  0
 20 21  1  6
 20 22  1  0
 20 23  1  0
 23 24  1  6
  7 25  2  0
 25  2  1  0
 18  9  1  0
 23 17  1  0
M  END
$$$$
