_rank11
     RDKit          3D

 25 27  0  0  0  0  0  0  0  0999 V2000
   19.1899   -3.3320  -10.8950 C   0  0  0  0  0  0  0  0  0  0  0  0
   19.7044   -1.9589  -10.6668 C   0  0  0  0  0  0  0  0  0  0  0  0
   18.9581   -1.0448   -9.9859 C   0  0  0  0  0  0  0  0  0  0  0  0
   19.4324    0.2412   -9.7685 C   0  0  0  0  0  0  0  0  0  0  0  0
   18.7073    1.1732   -9.0916 F   0  0  0  0  0  0  0  0  0  0  0  0
   20.6945    0.5510  -10.2740 C   0  0  0  0  0  0  0  0  0  0  0  0
   21.4397   -0.3847  -10.9619 C   0  0  0  0  0  0  0  0  0  0  0  0
   22.6953   -0.1046  -11.4745 O   0  0  0  0  0  0  0  0  0  0  0  0
   23.8554   -0.2120  -10.7390 C   0  0  0  0  0  0  0  0  0  0  0  0
   23.8258   -0.8332   -9.4905 C   0  0  0  0  0  0  0  0  0  0  0  0
   25.0169   -0.9244   -8.7742 C   0  0  0  0  0  0  0  0  0  0  0  0
   26.1759   -0.4170   -9.2881 C   0  0  0  0  0  0  0  0  0  0  0  0
   27.6528   -0.5392   -8.3812 S   0  0  1  0  0  6  0  0  0  0  0  0
   27.9931    1.0469   -7.6215 C   0  0  0  0  0  0  0  0  0  0  0  0
   27.5137   -1.5717   -7.3009 O   0  0  0  0  0  0  0  0  0  0  0  0
   28.8302   -0.8525   -9.2569 O   0  0  0  0  0  0  0  0  0  0  0  0
   26.1665    0.1880  -10.5210 C   0  0  0  0  0  0  0  0  0  0  0  0
   25.0116    0.3042  -11.2722 C   0  0  0  0  0  0  0  0  0  0  0  0
   25.3145    0.9988  -12.5516 C   0  0  0  0  0  0  0  0  0  0  0  0
   26.7805    0.5704  -12.7169 C   0  0  2  0  0  0  0  0  0  0  0  0
   27.4352    1.2994  -13.6453 F   0  0  0  0  0  0  0  0  0  0  0  0
   26.7930   -0.7856  -12.9457 F   0  0  0  0  0  0  0  0  0  0  0  0
   27.2574    0.8131  -11.3003 C   0  0  1  0  0  0  0  0  0  0  0  0
   27.1964    2.1850  -11.0711 O   0  0  0  0  0  0  0  0  0  0  0  0
   20.9510   -1.6591  -11.1682 C   0  0  0  0  0  0  0  0  0  0  0  0
  1  2  1  6
  2  3  2  0
  3  4  1  0
  4  5  1  0
  4  6  2  0
  6  7  1  0
  7  8  1  0
  8  9  1  0
  9 10  2  0
 10 11  1  0
 11 12  2  0
 13 12  1  6
 14 13  1  6
 13 15  2  0
 13 16  2  0
 12 17  1  0
 17 18  2  0
 19 18  1  6
 19 20  1  0
 20 21  1  6
 20 22  1  0
 20 23  1  0
 23 24  1  1
  7 25  2  0
 25  2  1  0
 18  9  1  0
 23 17  1  0
M  END
$$$$
