_rank2
     RDKit          3D

 19 21  0  0  0  0  0  0  0  0999 V2000
   27.3246    1.2515   -8.7883 C   0  0  0  0  0  0  0  0  0  0  0  0
   27.2555   -0.5186   -8.8876 S   0  0  2  0  0  6  0  0  0  0  0  0
   26.8822   -1.0330   -7.5239 O   0  0  0  0  0  0  0  0  0  0  0  0
   28.6082   -1.0559   -9.2107 O   0  0  0  0  0  0  0  0  0  0  0  0
   26.0391   -1.0358  -10.1084 C   0  0  2  0  0  0  0  0  0  0  0  0
   26.1865   -0.1665  -11.2912 C   0  0  0  0  0  0  0  0  0  0  0  0
   24.9534    0.6156  -11.6605 C   0  0  0  0  0  0  0  0  0  0  0  0
   23.8334   -0.4281  -11.7466 C   0  0  0  0  0  0  0  0  0  0  0  0
   23.5318   -0.7932  -10.3195 C   0  0  2  0  0  0  0  0  0  0  0  0
   24.7040   -1.1591   -9.5056 C   0  0  0  0  0  0  0  0  0  0  0  0
   22.5338   -1.8731  -10.3710 N   0  0  0  0  0  0  0  0  0  0  0  0
   21.2443   -1.2633  -10.4815 C   0  0  0  0  0  0  0  0  0  0  0  0
   20.0194   -1.7804  -10.8732 C   0  0  0  0  0  0  0  0  0  0  0  0
   18.9026   -0.9725  -10.8960 C   0  0  0  0  0  0  0  0  0  0  0  0
   17.7090   -1.4893  -11.2810 F   0  0  0  0  0  0  0  0  0  0  0  0
   19.0585    0.3447  -10.5190 C   0  0  0  0  0  0  0  0  0  0  0  0
   20.2805    0.8475  -10.1316 C   0  0  0  0  0  0  0  0  0  0  0  0
   21.4094    0.0512  -10.1033 C   0  0  0  0  0  0  0  0  0  0  0  0
   22.7405    0.2439   -9.7741 O   0  0  0  0  0  0  0  0  0  0  0  0
  2  1  1  1
  2  3  2  0
  2  4  2  0
  5  2  1  1
  6  5  1  1
  7  6  1  1
  8  7  1  6
  8  9  1  0
 10  9  1  6
  9 11  1  6
 11 12  1  0
 12 13  2  0
 13 14  1  0
 14 15  1  0
 14 16  2  0
 16 17  1  0
 17 18  2  0
 18 19  1  0
 10  5  1  0
 18 12  1  0
  9 19  1  0
M  END
$$$$
