_rank7
     RDKit          3D

 19 21  0  0  0  0  0  0  0  0999 V2000
   28.1068   -2.1785   -8.5224 C   0  0  0  0  0  0  0  0  0  0  0  0
   27.5907   -0.5149   -8.8595 S   0  0  2  0  0  6  0  0  0  0  0  0
   28.8252    0.2864   -9.1714 O   0  0  0  0  0  0  0  0  0  0  0  0
   26.9738    0.0761   -7.6375 O   0  0  0  0  0  0  0  0  0  0  0  0
   26.4496   -0.4770  -10.2501 C   0  0  2  0  0  0  0  0  0  0  0  0
   26.4200    0.9016  -10.7745 C   0  0  0  0  0  0  0  0  0  0  0  0
   25.0643    1.5577  -10.7560 C   0  0  0  0  0  0  0  0  0  0  0  0
   24.1341    0.5647  -11.4632 C   0  0  0  0  0  0  0  0  0  0  0  0
   23.9329   -0.5507  -10.4752 C   0  0  2  0  0  0  0  0  0  0  0  0
   25.1692   -1.1095   -9.9012 C   0  0  0  0  0  0  0  0  0  0  0  0
   23.1299   -1.5732  -11.1639 N   0  0  0  0  0  0  0  0  0  0  0  0
   21.7538   -1.2077  -11.0229 C   0  0  0  0  0  0  0  0  0  0  0  0
   20.6243   -1.6160  -11.7148 C   0  0  0  0  0  0  0  0  0  0  0  0
   19.3873   -1.1066  -11.3822 C   0  0  0  0  0  0  0  0  0  0  0  0
   18.2887   -1.5134  -12.0661 F   0  0  0  0  0  0  0  0  0  0  0  0
   19.3283   -0.1922  -10.3517 C   0  0  0  0  0  0  0  0  0  0  0  0
   20.4573    0.2061   -9.6713 C   0  0  0  0  0  0  0  0  0  0  0  0
   21.7045   -0.2948   -9.9922 C   0  0  0  0  0  0  0  0  0  0  0  0
   22.9917   -0.1056   -9.5184 O   0  0  0  0  0  0  0  0  0  0  0  0
  2  1  1  1
  2  3  2  0
  2  4  2  0
  5  2  1  1
  6  5  1  1
  7  6  1  1
  8  7  1  6
  8  9  1  0
 10  9  1  6
  9 11  1  6
 11 12  1  0
 12 13  2  0
 13 14  1  0
 14 15  1  0
 14 16  2  0
 16 17  1  0
 17 18  2  0
 18 19  1  0
 10  5  1  0
 18 12  1  0
  9 19  1  0
M  END
$$$$
