_rank13
     RDKit          3D

 19 21  0  0  0  0  0  0  0  0999 V2000
   28.2568   -0.6434  -10.4221 C   0  0  0  0  0  0  0  0  0  0  0  0
   27.4486    0.1311   -9.0456 S   0  0  2  0  0  6  0  0  0  0  0  0
   27.2428    1.5789   -9.3991 O   0  0  0  0  0  0  0  0  0  0  0  0
   28.3399    0.0871   -7.8512 O   0  0  0  0  0  0  0  0  0  0  0  0
   25.8696   -0.6642   -8.7112 C   0  0  2  0  0  0  0  0  0  0  0  0
   25.8712   -1.9761   -9.3858 C   0  0  0  0  0  0  0  0  0  0  0  0
   24.7742   -2.1687  -10.3998 C   0  0  0  0  0  0  0  0  0  0  0  0
   23.4810   -1.8126   -9.6566 C   0  0  0  0  0  0  0  0  0  0  0  0
   23.5044   -0.3144   -9.5317 C   0  0  2  0  0  0  0  0  0  0  0  0
   24.7496    0.2488   -8.9818 C   0  0  0  0  0  0  0  0  0  0  0  0
   22.3278    0.0519   -8.7279 N   0  0  0  0  0  0  0  0  0  0  0  0
   21.2114    0.1491   -9.6173 C   0  0  0  0  0  0  0  0  0  0  0  0
   19.8468    0.1495   -9.3743 C   0  0  0  0  0  0  0  0  0  0  0  0
   18.9575    0.2570  -10.4221 C   0  0  0  0  0  0  0  0  0  0  0  0
   17.6241    0.2564  -10.1726 F   0  0  0  0  0  0  0  0  0  0  0  0
   19.4782    0.3616  -11.6947 C   0  0  0  0  0  0  0  0  0  0  0  0
   20.8360    0.3600  -11.9241 C   0  0  0  0  0  0  0  0  0  0  0  0
   21.7406    0.2531  -10.8850 C   0  0  0  0  0  0  0  0  0  0  0  0
   23.1211    0.2217  -10.7827 O   0  0  0  0  0  0  0  0  0  0  0  0
  2  1  1  6
  2  3  2  0
  2  4  2  0
  5  2  1  6
  6  5  1  1
  7  6  1  1
  8  7  1  6
  8  9  1  0
 10  9  1  6
  9 11  1  1
 11 12  1  0
 12 13  2  0
 13 14  1  0
 14 15  1  0
 14 16  2  0
 16 17  1  0
 17 18  2  0
 18 19  1  0
 10  5  1  0
 18 12  1  0
  9 19  1  0
M  END
$$$$
