_rank14
     RDKit          3D

 19 21  0  0  0  0  0  0  0  0999 V2000
   28.4853    0.6727   -8.7089 C   0  0  0  0  0  0  0  0  0  0  0  0
   27.2264   -0.4773   -9.1992 S   0  0  2  0  0  6  0  0  0  0  0  0
   27.3202   -1.6670   -8.2832 O   0  0  0  0  0  0  0  0  0  0  0  0
   27.4991   -0.9592  -10.5836 O   0  0  0  0  0  0  0  0  0  0  0  0
   25.5984    0.2798   -9.0806 C   0  0  2  0  0  0  0  0  0  0  0  0
   25.1217    0.1140   -7.6944 C   0  0  0  0  0  0  0  0  0  0  0  0
   23.8287   -0.6459   -7.5555 C   0  0  0  0  0  0  0  0  0  0  0  0
   22.8526    0.0560   -8.5075 C   0  0  0  0  0  0  0  0  0  0  0  0
   23.2887   -0.3578   -9.8857 C   0  0  2  0  0  0  0  0  0  0  0  0
   24.7226   -0.1756  -10.1700 C   0  0  0  0  0  0  0  0  0  0  0  0
   22.4378    0.3846  -10.8289 N   0  0  0  0  0  0  0  0  0  0  0  0
   21.2271   -0.3594  -10.9947 C   0  0  0  0  0  0  0  0  0  0  0  0
   19.9890    0.0098  -11.4966 C   0  0  0  0  0  0  0  0  0  0  0  0
   18.9628   -0.9090  -11.5522 C   0  0  0  0  0  0  0  0  0  0  0  0
   17.7553   -0.5366  -12.0454 F   0  0  0  0  0  0  0  0  0  0  0  0
   19.2208   -2.1842  -11.0951 C   0  0  0  0  0  0  0  0  0  0  0  0
   20.4549   -2.5397  -10.5984 C   0  0  0  0  0  0  0  0  0  0  0  0
   21.4939   -1.6308  -10.5358 C   0  0  0  0  0  0  0  0  0  0  0  0
   22.8097   -1.6698  -10.1064 O   0  0  0  0  0  0  0  0  0  0  0  0
  2  1  1  1
  2  3  2  0
  2  4  2  0
  5  2  1  1
  6  5  1  1
  7  6  1  1
  8  7  1  6
  8  9  1  0
 10  9  1  6
  9 11  1  6
 11 12  1  0
 12 13  2  0
 13 14  1  0
 14 15  1  0
 14 16  2  0
 16 17  1  0
 17 18  2  0
 18 19  1  0
 10  5  1  0
 18 12  1  0
  9 19  1  0
M  END
$$$$
