_rank1
     RDKit          3D

 19 21  0  0  0  0  0  0  0  0999 V2000
   26.8101    0.6847   -7.7940 C   0  0  0  0  0  0  0  0  0  0  0  0
   27.5434   -0.3712   -9.0167 S   0  0  2  0  0  6  0  0  0  0  0  0
   28.0585   -1.5938   -8.3072 O   0  0  0  0  0  0  0  0  0  0  0  0
   28.7165    0.3134   -9.6319 O   0  0  0  0  0  0  0  0  0  0  0  0
   26.3300   -0.8327  -10.2625 C   0  0  2  0  0  0  0  0  0  0  0  0
   26.4199    0.1426  -11.3657 C   0  0  0  0  0  0  0  0  0  0  0  0
   25.1482    0.8987  -11.6483 C   0  0  0  0  0  0  0  0  0  0  0  0
   24.0728   -0.1821  -11.8117 C   0  0  0  0  0  0  0  0  0  0  0  0
   23.8114   -0.6840  -10.4186 C   0  0  2  0  0  0  0  0  0  0  0  0
   25.0117   -1.0675   -9.6556 C   0  0  0  0  0  0  0  0  0  0  0  0
   22.8600   -1.7983  -10.5523 N   0  0  0  0  0  0  0  0  0  0  0  0
   21.5438   -1.2389  -10.5917 C   0  0  0  0  0  0  0  0  0  0  0  0
   20.3358   -1.7734  -11.0116 C   0  0  0  0  0  0  0  0  0  0  0  0
   19.1851   -1.0170  -10.9483 C   0  0  0  0  0  0  0  0  0  0  0  0
   18.0085   -1.5504  -11.3619 F   0  0  0  0  0  0  0  0  0  0  0  0
   19.2905    0.2677  -10.4585 C   0  0  0  0  0  0  0  0  0  0  0  0
   20.4961    0.7883  -10.0441 C   0  0  0  0  0  0  0  0  0  0  0  0
   21.6586    0.0434  -10.1010 C   0  0  0  0  0  0  0  0  0  0  0  0
   22.9855    0.2653   -9.7735 O   0  0  0  0  0  0  0  0  0  0  0  0
  2  1  1  1
  2  3  2  0
  2  4  2  0
  5  2  1  1
  6  5  1  1
  7  6  1  1
  8  7  1  6
  8  9  1  0
 10  9  1  6
  9 11  1  6
 11 12  1  0
 12 13  2  0
 13 14  1  0
 14 15  1  0
 14 16  2  0
 16 17  1  0
 17 18  2  0
 18 19  1  0
 10  5  1  0
 18 12  1  0
  9 19  1  0
M  END
$$$$
