_rank10
     RDKit          3D

 19 21  0  0  0  0  0  0  0  0999 V2000
   29.2307   -0.5216   -9.1266 C   0  0  0  0  0  0  0  0  0  0  0  0
   27.6208    0.1054   -8.7234 S   0  0  2  0  0  6  0  0  0  0  0  0
   27.4176    1.3695   -9.5135 O   0  0  0  0  0  0  0  0  0  0  0  0
   27.5724    0.4712   -7.2788 O   0  0  0  0  0  0  0  0  0  0  0  0
   26.3516   -1.1022   -9.1337 C   0  0  2  0  0  0  0  0  0  0  0  0
   26.6557   -1.6419  -10.4726 C   0  0  0  0  0  0  0  0  0  0  0  0
   25.5735   -1.4359  -11.4997 C   0  0  0  0  0  0  0  0  0  0  0  0
   24.2977   -1.9797  -10.8454 C   0  0  0  0  0  0  0  0  0  0  0  0
   23.9216   -0.9523   -9.8140 C   0  0  2  0  0  0  0  0  0  0  0  0
   25.0067   -0.5567   -8.8995 C   0  0  0  0  0  0  0  0  0  0  0  0
   22.7599   -1.4960   -9.0933 N   0  0  0  0  0  0  0  0  0  0  0  0
   21.5902   -1.1605   -9.8458 C   0  0  0  0  0  0  0  0  0  0  0  0
   20.3019   -1.6706   -9.8083 C   0  0  0  0  0  0  0  0  0  0  0  0
   19.3342   -1.1687  -10.6520 C   0  0  0  0  0  0  0  0  0  0  0  0
   18.0767   -1.6755  -10.6066 F   0  0  0  0  0  0  0  0  0  0  0  0
   19.7004   -0.1580  -11.5156 C   0  0  0  0  0  0  0  0  0  0  0  0
   20.9835    0.3410  -11.5440 C   0  0  0  0  0  0  0  0  0  0  0  0
   21.9651   -0.1509  -10.7051 C   0  0  0  0  0  0  0  0  0  0  0  0
   23.3053    0.1243  -10.4924 O   0  0  0  0  0  0  0  0  0  0  0  0
  2  1  1  6
  2  3  2  0
  2  4  2  0
  5  2  1  6
  6  5  1  1
  7  6  1  1
  8  7  1  6
  8  9  1  0
 10  9  1  6
  9 11  1  1
 11 12  1  0
 12 13  2  0
 13 14  1  0
 14 15  1  0
 14 16  2  0
 16 17  1  0
 17 18  2  0
 18 19  1  0
 10  5  1  0
 18 12  1  0
  9 19  1  0
M  END
$$$$
