_rank20
     RDKit          3D

 19 21  0  0  0  0  0  0  0  0999 V2000
   28.6337   -1.2393  -10.4800 C   0  0  0  0  0  0  0  0  0  0  0  0
   27.6719   -0.7012   -9.0896 S   0  0  2  0  0  6  0  0  0  0  0  0
   28.5438    0.2013   -8.2598 O   0  0  0  0  0  0  0  0  0  0  0  0
   27.3139   -1.8752   -8.2431 O   0  0  0  0  0  0  0  0  0  0  0  0
   26.2022    0.1785   -9.6407 C   0  0  2  0  0  0  0  0  0  0  0  0
   25.6609    0.9229   -8.4878 C   0  0  0  0  0  0  0  0  0  0  0  0
   24.2494    0.5613   -8.1062 C   0  0  0  0  0  0  0  0  0  0  0  0
   23.4441    0.6840   -9.4054 C   0  0  0  0  0  0  0  0  0  0  0  0
   23.8418   -0.5131  -10.2237 C   0  0  2  0  0  0  0  0  0  0  0  0
   25.2933   -0.7161  -10.3720 C   0  0  0  0  0  0  0  0  0  0  0  0
   23.1666   -0.3685  -11.5229 N   0  0  0  0  0  0  0  0  0  0  0  0
   21.8483   -0.9072  -11.3858 C   0  0  0  0  0  0  0  0  0  0  0  0
   20.7120   -0.7518  -12.1642 C   0  0  0  0  0  0  0  0  0  0  0  0
   19.5407   -1.3884  -11.8136 C   0  0  0  0  0  0  0  0  0  0  0  0
   18.4348   -1.2292  -12.5829 F   0  0  0  0  0  0  0  0  0  0  0  0
   19.5528   -2.1696  -10.6773 C   0  0  0  0  0  0  0  0  0  0  0  0
   20.6877   -2.3167   -9.9115 C   0  0  0  0  0  0  0  0  0  0  0  0
   21.8697   -1.6855  -10.2491 C   0  0  0  0  0  0  0  0  0  0  0  0
   23.1435   -1.6298   -9.7092 O   0  0  0  0  0  0  0  0  0  0  0  0
  2  1  1  6
  2  3  2  0
  2  4  2  0
  5  2  1  1
  6  5  1  1
  7  6  1  1
  8  7  1  6
  8  9  1  0
 10  9  1  6
  9 11  1  6
 11 12  1  0
 12 13  2  0
 13 14  1  0
 14 15  1  0
 14 16  2  0
 16 17  1  0
 17 18  2  0
 18 19  1  0
 10  5  1  0
 18 12  1  0
  9 19  1  0
M  END
$$$$
