_rank17
     RDKit          3D

 19 21  0  0  0  0  0  0  0  0999 V2000
   28.8501   -0.4209  -10.6627 C   0  0  0  0  0  0  0  0  0  0  0  0
   27.6882   -0.5538   -9.3285 S   0  0  2  0  0  6  0  0  0  0  0  0
   28.3590   -0.0224   -8.0911 O   0  0  0  0  0  0  0  0  0  0  0  0
   27.3710   -1.9894   -9.0808 O   0  0  0  0  0  0  0  0  0  0  0  0
   26.1999    0.3903   -9.6906 C   0  0  2  0  0  0  0  0  0  0  0  0
   25.7163    0.9764   -8.4260 C   0  0  0  0  0  0  0  0  0  0  0  0
   24.3217    0.5673   -8.0305 C   0  0  0  0  0  0  0  0  0  0  0  0
   23.4585    0.8597   -9.2636 C   0  0  0  0  0  0  0  0  0  0  0  0
   23.8112   -0.2192  -10.2497 C   0  0  2  0  0  0  0  0  0  0  0  0
   25.2533   -0.4004  -10.4904 C   0  0  0  0  0  0  0  0  0  0  0  0
   23.0780    0.0948  -11.4860 N   0  0  0  0  0  0  0  0  0  0  0  0
   21.7643   -0.4576  -11.3602 C   0  0  0  0  0  0  0  0  0  0  0  0
   20.5944   -0.2015  -12.0581 C   0  0  0  0  0  0  0  0  0  0  0  0
   19.4367   -0.8790  -11.7404 C   0  0  0  0  0  0  0  0  0  0  0  0
   18.2977   -0.6202  -12.4301 F   0  0  0  0  0  0  0  0  0  0  0  0
   19.4964   -1.8029  -10.7184 C   0  0  0  0  0  0  0  0  0  0  0  0
   20.6644   -2.0491  -10.0319 C   0  0  0  0  0  0  0  0  0  0  0  0
   21.8333   -1.3787  -10.3379 C   0  0  0  0  0  0  0  0  0  0  0  0
   23.1309   -1.3941   -9.8548 O   0  0  0  0  0  0  0  0  0  0  0  0
  2  1  1  6
  2  3  2  0
  2  4  2  0
  5  2  1  1
  6  5  1  1
  7  6  1  1
  8  7  1  6
  8  9  1  0
 10  9  1  6
  9 11  1  6
 11 12  1  0
 12 13  2  0
 13 14  1  0
 14 15  1  0
 14 16  2  0
 16 17  1  0
 17 18  2  0
 18 19  1  0
 10  5  1  0
 18 12  1  0
  9 19  1  0
M  END
$$$$
