_rank3
     RDKit          3D

 19 21  0  0  0  0  0  0  0  0999 V2000
   26.6043    1.5695   -8.4560 C   0  0  0  0  0  0  0  0  0  0  0  0
   27.1880    0.0033   -9.0511 S   0  0  2  0  0  6  0  0  0  0  0  0
   27.5244   -0.8389   -7.8507 O   0  0  0  0  0  0  0  0  0  0  0  0
   28.4476    0.1986   -9.8247 O   0  0  0  0  0  0  0  0  0  0  0  0
   25.9270   -0.8026  -10.0501 C   0  0  2  0  0  0  0  0  0  0  0  0
   26.0656   -0.3140  -11.4352 C   0  0  0  0  0  0  0  0  0  0  0  0
   24.8439    0.3688  -11.9916 C   0  0  0  0  0  0  0  0  0  0  0  0
   23.6953   -0.6191  -11.7543 C   0  0  0  0  0  0  0  0  0  0  0  0
   23.4221   -0.5499  -10.2773 C   0  0  2  0  0  0  0  0  0  0  0  0
   24.6054   -0.7048   -9.4136 C   0  0  0  0  0  0  0  0  0  0  0  0
   22.3955   -1.5664   -9.9987 N   0  0  0  0  0  0  0  0  0  0  0  0
   21.1197   -0.9726  -10.2568 C   0  0  0  0  0  0  0  0  0  0  0  0
   19.8720   -1.5405  -10.4617 C   0  0  0  0  0  0  0  0  0  0  0  0
   18.7763   -0.7374  -10.6957 C   0  0  0  0  0  0  0  0  0  0  0  0
   17.5600   -1.3041  -10.8948 F   0  0  0  0  0  0  0  0  0  0  0  0
   18.9759    0.6269  -10.7158 C   0  0  0  0  0  0  0  0  0  0  0  0
   20.2202    1.1799  -10.5110 C   0  0  0  0  0  0  0  0  0  0  0  0
   21.3286    0.3891  -10.2752 C   0  0  0  0  0  0  0  0  0  0  0  0
   22.6724    0.6250  -10.0390 O   0  0  0  0  0  0  0  0  0  0  0  0
  2  1  1  1
  2  3  2  0
  2  4  2  0
  5  2  1  1
  6  5  1  1
  7  6  1  1
  8  7  1  6
  8  9  1  0
 10  9  1  6
  9 11  1  1
 11 12  1  0
 12 13  2  0
 13 14  1  0
 14 15  1  0
 14 16  2  0
 16 17  1  0
 17 18  2  0
 18 19  1  0
 10  5  1  0
 18 12  1  0
  9 19  1  0
M  END
$$$$
