_rank15
     RDKit          3D

 19 21  0  0  0  0  0  0  0  0999 V2000
   28.1002    0.8211  -11.5604 C   0  0  0  0  0  0  0  0  0  0  0  0
   27.5812   -0.1625  -10.1780 S   0  0  2  0  0  6  0  0  0  0  0  0
   28.6991   -0.1517   -9.1712 O   0  0  0  0  0  0  0  0  0  0  0  0
   27.3876   -1.5756  -10.6126 O   0  0  0  0  0  0  0  0  0  0  0  0
   26.0774    0.5094   -9.4538 C   0  0  2  0  0  0  0  0  0  0  0  0
   25.9429   -0.0450   -8.0933 C   0  0  0  0  0  0  0  0  0  0  0  0
   24.6807   -0.8303   -7.8508 C   0  0  0  0  0  0  0  0  0  0  0  0
   23.5449    0.0977   -8.2984 C   0  0  0  0  0  0  0  0  0  0  0  0
   23.6084    0.0931   -9.8007 C   0  0  2  0  0  0  0  0  0  0  0  0
   24.9383    0.3666  -10.3721 C   0  0  0  0  0  0  0  0  0  0  0  0
   22.5983    1.0591  -10.2601 N   0  0  0  0  0  0  0  0  0  0  0  0
   21.3426    0.3757  -10.3168 C   0  0  0  0  0  0  0  0  0  0  0  0
   20.0431    0.8547  -10.3726 C   0  0  0  0  0  0  0  0  0  0  0  0
   18.9829   -0.0250  -10.4209 C   0  0  0  0  0  0  0  0  0  0  0  0
   17.7153    0.4550  -10.4754 F   0  0  0  0  0  0  0  0  0  0  0  0
   19.2700   -1.3737  -10.4114 C   0  0  0  0  0  0  0  0  0  0  0  0
   20.5652   -1.8381  -10.3557 C   0  0  0  0  0  0  0  0  0  0  0  0
   21.6390   -0.9697  -10.3068 C   0  0  0  0  0  0  0  0  0  0  0  0
   23.0151   -1.1103  -10.2469 O   0  0  0  0  0  0  0  0  0  0  0  0
  2  1  1  6
  2  3  2  0
  2  4  2  0
  5  2  1  6
  6  5  1  1
  7  6  1  1
  8  7  1  6
  8  9  1  0
 10  9  1  6
  9 11  1  6
 11 12  1  0
 12 13  2  0
 13 14  1  0
 14 15  1  0
 14 16  2  0
 16 17  1  0
 17 18  2  0
 18 19  1  0
 10  5  1  0
 18 12  1  0
  9 19  1  0
M  END
$$$$
