_rank8
     RDKit          3D

 19 21  0  0  0  0  0  0  0  0999 V2000
   28.5147   -1.4789   -8.2853 C   0  0  0  0  0  0  0  0  0  0  0  0
   27.3324   -0.2266   -8.7115 S   0  0  2  0  0  6  0  0  0  0  0  0
   28.0917    0.9270   -9.3079 O   0  0  0  0  0  0  0  0  0  0  0  0
   26.6632    0.2725   -7.4760 O   0  0  0  0  0  0  0  0  0  0  0  0
   26.1328   -0.8656   -9.8906 C   0  0  2  0  0  0  0  0  0  0  0  0
   26.3217   -0.1455  -11.1642 C   0  0  0  0  0  0  0  0  0  0  0  0
   25.1117    0.6070  -11.6523 C   0  0  0  0  0  0  0  0  0  0  0  0
   23.9743   -0.4215  -11.6404 C   0  0  0  0  0  0  0  0  0  0  0  0
   23.6356   -0.6096  -10.1876 C   0  0  2  0  0  0  0  0  0  0  0  0
   24.7830   -0.8949   -9.3089 C   0  0  0  0  0  0  0  0  0  0  0  0
   22.6189   -1.6717  -10.1343 N   0  0  0  0  0  0  0  0  0  0  0  0
   21.3437   -1.0587  -10.3464 C   0  0  0  0  0  0  0  0  0  0  0  0
   20.1179   -1.5989  -10.7027 C   0  0  0  0  0  0  0  0  0  0  0  0
   19.0172   -0.7816  -10.8470 C   0  0  0  0  0  0  0  0  0  0  0  0
   17.8226   -1.3212  -11.1961 F   0  0  0  0  0  0  0  0  0  0  0  0
   19.1897    0.5684  -10.6251 C   0  0  0  0  0  0  0  0  0  0  0  0
   20.4123    1.0940  -10.2715 C   0  0  0  0  0  0  0  0  0  0  0  0
   21.5253    0.2886  -10.1227 C   0  0  0  0  0  0  0  0  0  0  0  0
   22.8524    0.4976   -9.7876 O   0  0  0  0  0  0  0  0  0  0  0  0
  2  1  1  1
  2  3  2  0
  2  4  2  0
  5  2  1  1
  6  5  1  1
  7  6  1  1
  8  7  1  6
  8  9  1  0
 10  9  1  6
  9 11  1  6
 11 12  1  0
 12 13  2  0
 13 14  1  0
 14 15  1  0
 14 16  2  0
 16 17  1  0
 17 18  2  0
 18 19  1  0
 10  5  1  0
 18 12  1  0
  9 19  1  0
M  END
$$$$
