_rank5
     RDKit          3D

 19 21  0  0  0  0  0  0  0  0999 V2000
   27.6425    1.1843   -9.0850 C   0  0  0  0  0  0  0  0  0  0  0  0
   27.1975   -0.4941   -8.7206 S   0  0  2  0  0  6  0  0  0  0  0  0
   26.6422   -0.5206   -7.3226 O   0  0  0  0  0  0  0  0  0  0  0  0
   28.4183   -1.3501   -8.7307 O   0  0  0  0  0  0  0  0  0  0  0  0
   25.9718   -1.0917   -9.8945 C   0  0  2  0  0  0  0  0  0  0  0  0
   26.1554   -0.3515  -11.1574 C   0  0  0  0  0  0  0  0  0  0  0  0
   24.9515    0.4295  -11.6150 C   0  0  0  0  0  0  0  0  0  0  0  0
   23.7975   -0.5805  -11.6061 C   0  0  0  0  0  0  0  0  0  0  0  0
   23.4754   -0.7897  -10.1524 C   0  0  2  0  0  0  0  0  0  0  0  0
   24.6297   -1.1098   -9.2949 C   0  0  0  0  0  0  0  0  0  0  0  0
   22.4421   -1.8359  -10.1044 N   0  0  0  0  0  0  0  0  0  0  0  0
   21.1744   -1.1985  -10.2877 C   0  0  0  0  0  0  0  0  0  0  0  0
   19.9352   -1.7120  -10.6369 C   0  0  0  0  0  0  0  0  0  0  0  0
   18.8463   -0.8745  -10.7512 C   0  0  0  0  0  0  0  0  0  0  0  0
   17.6384   -1.3881  -11.0935 F   0  0  0  0  0  0  0  0  0  0  0  0
   19.0440    0.4683  -10.5072 C   0  0  0  0  0  0  0  0  0  0  0  0
   20.2798    0.9673  -10.1610 C   0  0  0  0  0  0  0  0  0  0  0  0
   21.3812    0.1414  -10.0422 C   0  0  0  0  0  0  0  0  0  0  0  0
   22.7160    0.3226   -9.7216 O   0  0  0  0  0  0  0  0  0  0  0  0
  2  1  1  6
  2  3  2  0
  2  4  2  0
  5  2  1  1
  6  5  1  1
  7  6  1  1
  8  7  1  6
  8  9  1  0
 10  9  1  6
  9 11  1  6
 11 12  1  0
 12 13  2  0
 13 14  1  0
 14 15  1  0
 14 16  2  0
 16 17  1  0
 17 18  2  0
 18 19  1  0
 10  5  1  0
 18 12  1  0
  9 19  1  0
M  END
$$$$
