_rank16
     RDKit          3D

 19 21  0  0  0  0  0  0  0  0999 V2000
   28.8630    0.5904   -8.8105 C   0  0  0  0  0  0  0  0  0  0  0  0
   27.5481   -0.5219   -9.2367 S   0  0  2  0  0  6  0  0  0  0  0  0
   27.3864   -1.4884   -8.0952 O   0  0  0  0  0  0  0  0  0  0  0  0
   27.9321   -1.3147  -10.4397 O   0  0  0  0  0  0  0  0  0  0  0  0
   26.0187    0.3846   -9.5134 C   0  0  2  0  0  0  0  0  0  0  0  0
   25.4894    0.7923   -8.1981 C   0  0  0  0  0  0  0  0  0  0  0  0
   24.1123    0.2716   -7.8801 C   0  0  0  0  0  0  0  0  0  0  0  0
   23.2516    0.6655   -9.0865 C   0  0  0  0  0  0  0  0  0  0  0  0
   23.6716   -0.2704  -10.1857 C   0  0  2  0  0  0  0  0  0  0  0  0
   25.1240   -0.3512  -10.4186 C   0  0  0  0  0  0  0  0  0  0  0  0
   22.9397    0.1516  -11.3902 N   0  0  0  0  0  0  0  0  0  0  0  0
   21.6542   -0.4754  -11.3553 C   0  0  0  0  0  0  0  0  0  0  0  0
   20.4820   -0.1959  -12.0403 C   0  0  0  0  0  0  0  0  0  0  0  0
   19.3562   -0.9621  -11.8267 C   0  0  0  0  0  0  0  0  0  0  0  0
   18.2146   -0.6794  -12.5027 F   0  0  0  0  0  0  0  0  0  0  0  0
   19.4493   -1.9965  -10.9196 C   0  0  0  0  0  0  0  0  0  0  0  0
   20.6192   -2.2649  -10.2447 C   0  0  0  0  0  0  0  0  0  0  0  0
   21.7564   -1.5066  -10.4474 C   0  0  0  0  0  0  0  0  0  0  0  0
   23.0466   -1.5157   -9.9449 O   0  0  0  0  0  0  0  0  0  0  0  0
  2  1  1  1
  2  3  2  0
  2  4  2  0
  5  2  1  1
  6  5  1  1
  7  6  1  1
  8  7  1  6
  8  9  1  0
 10  9  1  6
  9 11  1  6
 11 12  1  0
 12 13  2  0
 13 14  1  0
 14 15  1  0
 14 16  2  0
 16 17  1  0
 17 18  2  0
 18 19  1  0
 10  5  1  0
 18 12  1  0
  9 19  1  0
M  END
$$$$
