_rank6
     RDKit          3D

 19 21  0  0  0  0  0  0  0  0999 V2000
   28.6451    0.3386   -9.8676 C   0  0  0  0  0  0  0  0  0  0  0  0
   27.0532    0.2231   -9.0929 S   0  0  2  0  0  6  0  0  0  0  0  0
   26.6164    1.6209   -8.7481 O   0  0  0  0  0  0  0  0  0  0  0  0
   27.1716   -0.5341   -7.8140 O   0  0  0  0  0  0  0  0  0  0  0  0
   25.8657   -0.5502  -10.2017 C   0  0  2  0  0  0  0  0  0  0  0  0
   26.0136    0.0736  -11.5304 C   0  0  0  0  0  0  0  0  0  0  0  0
   24.7710    0.7406  -12.0592 C   0  0  0  0  0  0  0  0  0  0  0  0
   23.6732   -0.3246  -11.9510 C   0  0  0  0  0  0  0  0  0  0  0  0
   23.3575   -0.4096  -10.4834 C   0  0  2  0  0  0  0  0  0  0  0  0
   24.5243   -0.5827   -9.6009 C   0  0  0  0  0  0  0  0  0  0  0  0
   22.3819   -1.5006  -10.3329 N   0  0  0  0  0  0  0  0  0  0  0  0
   21.0824   -0.9532  -10.5749 C   0  0  0  0  0  0  0  0  0  0  0  0
   19.8739   -1.5641  -10.8708 C   0  0  0  0  0  0  0  0  0  0  0  0
   18.7419   -0.8015  -11.0636 C   0  0  0  0  0  0  0  0  0  0  0  0
   17.5646   -1.4102  -11.3527 F   0  0  0  0  0  0  0  0  0  0  0  0
   18.8661    0.5672  -10.9507 C   0  0  0  0  0  0  0  0  0  0  0  0
   20.0720    1.1633  -10.6563 C   0  0  0  0  0  0  0  0  0  0  0  0
   21.2159    0.4133  -10.4601 C   0  0  0  0  0  0  0  0  0  0  0  0
   22.5378    0.6964  -10.1607 O   0  0  0  0  0  0  0  0  0  0  0  0
  2  1  1  6
  2  3  2  0
  2  4  2  0
  5  2  1  1
  6  5  1  1
  7  6  1  1
  8  7  1  6
  8  9  1  0
 10  9  1  6
  9 11  1  6
 11 12  1  0
 12 13  2  0
 13 14  1  0
 14 15  1  0
 14 16  2  0
 16 17  1  0
 17 18  2  0
 18 19  1  0
 10  5  1  0
 18 12  1  0
  9 19  1  0
M  END
$$$$
