_rank5
     RDKit          3D

 17 18  0  0  0  0  0  0  0  0999 V2000
   19.7253    1.2271  -11.0815 C   0  0  0  0  0  0  0  0  0  0  0  0
   20.6808    0.4086  -10.3740 N   0  0  0  0  0  0  0  0  0  0  0  0
   21.3310   -0.4412  -11.3354 C   0  0  2  0  0  0  0  0  0  0  0  0
   20.5976   -1.7540  -11.5300 C   0  0  0  0  0  0  0  0  0  0  0  0
   21.6231   -2.5328  -12.3350 C   0  0  0  0  0  0  0  0  0  0  0  0
   22.9737   -1.9764  -11.9261 C   0  0  0  0  0  0  0  0  0  0  0  0
   22.6508   -1.0078  -10.7693 C   0  0  1  0  0  0  0  0  0  0  0  0
   23.6087   -0.0416  -10.6058 O   0  0  0  0  0  0  0  0  0  0  0  0
   24.5759   -0.0744   -9.6204 C   0  0  0  0  0  0  0  0  0  0  0  0
   24.3249   -0.7128   -8.4031 C   0  0  0  0  0  0  0  0  0  0  0  0
   25.2727   -0.7555   -7.4136 C   0  0  0  0  0  0  0  0  0  0  0  0
   24.9974   -1.3846   -6.2400 F   0  0  0  0  0  0  0  0  0  0  0  0
   26.5151   -0.1798   -7.5548 C   0  0  0  0  0  0  0  0  0  0  0  0
   26.7738    0.4516   -8.7489 C   0  0  0  0  0  0  0  0  0  0  0  0
   28.0561    1.0573   -8.9210 C   0  0  0  0  0  0  0  0  0  0  0  0
   29.0925    1.5491   -9.0804 N   0  0  0  0  0  0  0  0  0  0  0  0
   25.8202    0.4939   -9.7432 C   0  0  0  0  0  0  0  0  0  0  0  0
  1  2  1  1
  3  2  1  1
  3  4  1  0
  4  5  1  6
  5  6  1  1
  6  7  1  1
  7  8  1  6
  8  9  1  0
  9 10  2  0
 10 11  1  0
 11 12  1  0
 11 13  2  0
 13 14  1  0
 14 15  1  0
 15 16  3  0
 14 17  2  0
  7  3  1  0
 17  9  1  0
M  END
$$$$
