_rank6
     RDKit          3D

 17 18  0  0  0  0  0  0  0  0999 V2000
   19.8865   -2.2112   -9.1987 C   0  0  0  0  0  0  0  0  0  0  0  0
   21.2038   -1.6342   -9.3229 N   0  0  0  0  0  0  0  0  0  0  0  0
   21.3207   -1.0824  -10.6462 C   0  0  2  0  0  0  0  0  0  0  0  0
   20.7343   -1.9974  -11.7035 C   0  0  0  0  0  0  0  0  0  0  0  0
   21.2425   -1.3279  -12.9683 C   0  0  0  0  0  0  0  0  0  0  0  0
   22.5376   -0.6420  -12.5772 C   0  0  0  0  0  0  0  0  0  0  0  0
   22.7879   -1.1025  -11.1261 C   0  0  1  0  0  0  0  0  0  0  0  0
   23.5809   -0.2325  -10.4247 O   0  0  0  0  0  0  0  0  0  0  0  0
   24.9092   -0.4681  -10.1290 C   0  0  0  0  0  0  0  0  0  0  0  0
   25.7011   -1.2332  -10.9893 C   0  0  0  0  0  0  0  0  0  0  0  0
   27.0212   -1.4774  -10.7122 C   0  0  0  0  0  0  0  0  0  0  0  0
   27.7651   -2.2259  -11.5698 F   0  0  0  0  0  0  0  0  0  0  0  0
   27.6420   -0.9909   -9.5840 C   0  0  0  0  0  0  0  0  0  0  0  0
   26.8726   -0.2363   -8.7295 C   0  0  0  0  0  0  0  0  0  0  0  0
   27.4930    0.2806   -7.5510 C   0  0  0  0  0  0  0  0  0  0  0  0
   28.0122    0.7046   -6.6065 N   0  0  0  0  0  0  0  0  0  0  0  0
   25.5454    0.0087   -9.0089 C   0  0  0  0  0  0  0  0  0  0  0  0
  1  2  1  1
  3  2  1  1
  3  4  1  0
  4  5  1  6
  5  6  1  1
  6  7  1  1
  7  8  1  1
  8  9  1  0
  9 10  2  0
 10 11  1  0
 11 12  1  0
 11 13  2  0
 13 14  1  0
 14 15  1  0
 15 16  3  0
 14 17  2  0
  7  3  1  0
 17  9  1  0
M  END
$$$$
