_rank9
     RDKit          3D

 17 18  0  0  0  0  0  0  0  0999 V2000
   27.8352    0.1632  -10.1165 C   0  0  0  0  0  0  0  0  0  0  0  0
   26.5338    0.7334  -10.3710 N   0  0  0  0  0  0  0  0  0  0  0  0
   25.7577   -0.2418  -11.0893 C   0  0  2  0  0  0  0  0  0  0  0  0
   26.4582   -0.7202  -12.3461 C   0  0  0  0  0  0  0  0  0  0  0  0
   25.3319   -1.4807  -13.0239 C   0  0  0  0  0  0  0  0  0  0  0  0
   24.0503   -0.8162  -12.5585 C   0  0  0  0  0  0  0  0  0  0  0  0
   24.5290    0.4122  -11.7570 C   0  0  1  0  0  0  0  0  0  0  0  0
   23.6022    0.8412  -10.8433 O   0  0  0  0  0  0  0  0  0  0  0  0
   22.4892    0.1117  -10.4740 C   0  0  0  0  0  0  0  0  0  0  0  0
   21.2599    0.3290  -11.1018 C   0  0  0  0  0  0  0  0  0  0  0  0
   20.1446   -0.3855  -10.7485 C   0  0  0  0  0  0  0  0  0  0  0  0
   18.9629   -0.1502  -11.3786 F   0  0  0  0  0  0  0  0  0  0  0  0
   20.1649   -1.3495   -9.7659 C   0  0  0  0  0  0  0  0  0  0  0  0
   21.3695   -1.5723   -9.1408 C   0  0  0  0  0  0  0  0  0  0  0  0
   21.4176   -2.5678   -8.1172 C   0  0  0  0  0  0  0  0  0  0  0  0
   21.4365   -3.3733   -7.2852 N   0  0  0  0  0  0  0  0  0  0  0  0
   22.4903   -0.8534   -9.4967 C   0  0  0  0  0  0  0  0  0  0  0  0
  1  2  1  1
  3  2  1  6
  3  4  1  0
  4  5  1  6
  5  6  1  1
  6  7  1  1
  7  8  1  1
  8  9  1  0
  9 10  2  0
 10 11  1  0
 11 12  1  0
 11 13  2  0
 13 14  1  0
 14 15  1  0
 15 16  3  0
 14 17  2  0
  7  3  1  0
 17  9  1  0
M  END
$$$$
