_rank8
     RDKit          3D

 17 18  0  0  0  0  0  0  0  0999 V2000
   21.3446   -1.9249  -13.3944 C   0  0  0  0  0  0  0  0  0  0  0  0
   20.7032   -1.0026  -12.4879 N   0  0  0  0  0  0  0  0  0  0  0  0
   21.1249   -1.3315  -11.1525 C   0  0  2  0  0  0  0  0  0  0  0  0
   20.1832   -0.7785  -10.1006 C   0  0  0  0  0  0  0  0  0  0  0  0
   20.9991   -1.0122   -8.8414 C   0  0  0  0  0  0  0  0  0  0  0  0
   22.4507   -0.9643   -9.2787 C   0  0  0  0  0  0  0  0  0  0  0  0
   22.3873   -0.5346  -10.7591 C   0  0  1  0  0  0  0  0  0  0  0  0
   23.4935   -0.9206  -11.4697 O   0  0  0  0  0  0  0  0  0  0  0  0
   24.7855   -0.5612  -11.1395 C   0  0  0  0  0  0  0  0  0  0  0  0
   25.6887   -0.1749  -12.1333 C   0  0  0  0  0  0  0  0  0  0  0  0
   26.9749    0.1851  -11.8244 C   0  0  0  0  0  0  0  0  0  0  0  0
   27.8297    0.5561  -12.8146 F   0  0  0  0  0  0  0  0  0  0  0  0
   27.4516    0.1888  -10.5330 C   0  0  0  0  0  0  0  0  0  0  0  0
   26.5715   -0.1895   -9.5462 C   0  0  0  0  0  0  0  0  0  0  0  0
   27.0415   -0.1942   -8.1970 C   0  0  0  0  0  0  0  0  0  0  0  0
   27.4401   -0.1908   -7.1096 N   0  0  0  0  0  0  0  0  0  0  0  0
   25.2786   -0.5513   -9.8576 C   0  0  0  0  0  0  0  0  0  0  0  0
  1  2  1  1
  3  2  1  6
  3  4  1  0
  4  5  1  6
  5  6  1  1
  6  7  1  1
  7  8  1  6
  8  9  1  0
  9 10  2  0
 10 11  1  0
 11 12  1  0
 11 13  2  0
 13 14  1  0
 14 15  1  0
 15 16  3  0
 14 17  2  0
  7  3  1  0
 17  9  1  0
M  END
$$$$
