_rank15
     RDKit          3D

 17 18  0  0  0  0  0  0  0  0999 V2000
   23.0199   -1.2118  -13.2895 C   0  0  0  0  0  0  0  0  0  0  0  0
   21.7141   -1.0148  -12.7067 N   0  0  0  0  0  0  0  0  0  0  0  0
   21.7867   -1.3976  -11.3220 C   0  0  2  0  0  0  0  0  0  0  0  0
   20.5038   -1.0918  -10.5739 C   0  0  0  0  0  0  0  0  0  0  0  0
   20.9537   -1.3146   -9.1407 C   0  0  0  0  0  0  0  0  0  0  0  0
   22.4393   -1.0084   -9.1251 C   0  0  0  0  0  0  0  0  0  0  0  0
   22.7285   -0.4590  -10.5375 C   0  0  1  0  0  0  0  0  0  0  0  0
   24.0406   -0.6070  -10.9039 O   0  0  0  0  0  0  0  0  0  0  0  0
   25.1012   -0.5177  -10.0238 C   0  0  0  0  0  0  0  0  0  0  0  0
   25.3363   -1.5332   -9.0931 C   0  0  0  0  0  0  0  0  0  0  0  0
   26.3839   -1.4617   -8.2119 C   0  0  0  0  0  0  0  0  0  0  0  0
   26.5858   -2.4665   -7.3183 F   0  0  0  0  0  0  0  0  0  0  0  0
   27.2589   -0.3993   -8.1883 C   0  0  0  0  0  0  0  0  0  0  0  0
   27.0375    0.6065   -9.0999 C   0  0  0  0  0  0  0  0  0  0  0  0
   27.9315    1.7209   -9.0963 C   0  0  0  0  0  0  0  0  0  0  0  0
   28.6640    2.6178   -9.0759 N   0  0  0  0  0  0  0  0  0  0  0  0
   25.9840    0.5338   -9.9855 C   0  0  0  0  0  0  0  0  0  0  0  0
  1  2  1  1
  3  2  1  6
  3  4  1  0
  4  5  1  6
  5  6  1  1
  6  7  1  1
  7  8  1  6
  8  9  1  0
  9 10  2  0
 10 11  1  0
 11 12  1  0
 11 13  2  0
 13 14  1  0
 14 15  1  0
 15 16  3  0
 14 17  2  0
  7  3  1  0
 17  9  1  0
M  END
$$$$
