_rank19
     RDKit          3D

 17 18  0  0  0  0  0  0  0  0999 V2000
   21.0027   -1.1263  -14.0938 C   0  0  0  0  0  0  0  0  0  0  0  0
   22.0401   -1.6213  -13.2207 N   0  0  0  0  0  0  0  0  0  0  0  0
   23.1798   -0.7537  -13.3536 C   0  0  2  0  0  0  0  0  0  0  0  0
   24.4081   -1.4914  -13.8494 C   0  0  0  0  0  0  0  0  0  0  0  0
   25.4799   -0.4406  -13.6187 C   0  0  0  0  0  0  0  0  0  0  0  0
   24.9877    0.3983  -12.4547 C   0  0  0  0  0  0  0  0  0  0  0  0
   23.7188   -0.3330  -11.9694 C   0  0  1  0  0  0  0  0  0  0  0  0
   22.8555    0.4939  -11.2997 O   0  0  0  0  0  0  0  0  0  0  0  0
   22.5410    0.3588   -9.9618 C   0  0  0  0  0  0  0  0  0  0  0  0
   21.2067    0.3070   -9.5499 C   0  0  0  0  0  0  0  0  0  0  0  0
   20.8755    0.1732   -8.2264 C   0  0  0  0  0  0  0  0  0  0  0  0
   19.5675    0.1259   -7.8580 F   0  0  0  0  0  0  0  0  0  0  0  0
   21.8238    0.0826   -7.2327 C   0  0  0  0  0  0  0  0  0  0  0  0
   23.1407    0.1324   -7.6260 C   0  0  0  0  0  0  0  0  0  0  0  0
   24.1448    0.0404   -6.6138 C   0  0  0  0  0  0  0  0  0  0  0  0
   24.9558   -0.0541   -5.7924 N   0  0  0  0  0  0  0  0  0  0  0  0
   23.4727    0.2669   -8.9569 C   0  0  0  0  0  0  0  0  0  0  0  0
  1  2  1  1
  3  2  1  1
  3  4  1  0
  4  5  1  6
  5  6  1  1
  6  7  1  1
  7  8  1  6
  8  9  1  0
  9 10  2  0
 10 11  1  0
 11 12  1  0
 11 13  2  0
 13 14  1  0
 14 15  1  0
 15 16  3  0
 14 17  2  0
  7  3  1  0
 17  9  1  0
M  END
$$$$
