_rank7
     RDKit          3D

 17 18  0  0  0  0  0  0  0  0999 V2000
   20.5152   -0.9585  -13.4042 C   0  0  0  0  0  0  0  0  0  0  0  0
   20.9216   -0.2520  -12.2129 N   0  0  0  0  0  0  0  0  0  0  0  0
   21.3406   -1.2277  -11.2425 C   0  0  2  0  0  0  0  0  0  0  0  0
   20.3565   -1.3567  -10.0963 C   0  0  0  0  0  0  0  0  0  0  0  0
   21.1654   -2.1972   -9.1240 C   0  0  0  0  0  0  0  0  0  0  0  0
   22.6187   -1.8704   -9.4102 C   0  0  0  0  0  0  0  0  0  0  0  0
   22.5541   -0.7189  -10.4351 C   0  0  1  0  0  0  0  0  0  0  0  0
   23.6890   -0.6252  -11.1974 O   0  0  0  0  0  0  0  0  0  0  0  0
   24.9695   -0.6876  -10.6837 C   0  0  0  0  0  0  0  0  0  0  0  0
   25.9754   -1.3717  -11.3712 C   0  0  0  0  0  0  0  0  0  0  0  0
   27.2520   -1.4442  -10.8769 C   0  0  0  0  0  0  0  0  0  0  0  0
   28.2085   -2.1177  -11.5700 F   0  0  0  0  0  0  0  0  0  0  0  0
   27.6187   -0.8555   -9.6878 C   0  0  0  0  0  0  0  0  0  0  0  0
   26.6369   -0.1792   -9.0021 C   0  0  0  0  0  0  0  0  0  0  0  0
   26.9915    0.4410   -7.7649 C   0  0  0  0  0  0  0  0  0  0  0  0
   27.2651    0.9326   -6.7525 N   0  0  0  0  0  0  0  0  0  0  0  0
   25.3537   -0.1068   -9.4999 C   0  0  0  0  0  0  0  0  0  0  0  0
  1  2  1  1
  3  2  1  6
  3  4  1  0
  4  5  1  6
  5  6  1  1
  6  7  1  1
  7  8  1  6
  8  9  1  0
  9 10  2  0
 10 11  1  0
 11 12  1  0
 11 13  2  0
 13 14  1  0
 14 15  1  0
 15 16  3  0
 14 17  2  0
  7  3  1  0
 17  9  1  0
M  END
$$$$
