_rank3
     RDKit          3D

 17 18  0  0  0  0  0  0  0  0999 V2000
   28.1378   -1.2600  -11.5546 C   0  0  0  0  0  0  0  0  0  0  0  0
   26.7207   -0.9905  -11.6058 N   0  0  0  0  0  0  0  0  0  0  0  0
   26.4063   -0.0780  -10.5391 C   0  0  2  0  0  0  0  0  0  0  0  0
   27.1906   -0.3788   -9.2767 C   0  0  0  0  0  0  0  0  0  0  0  0
   26.4700    0.5109   -8.2790 C   0  0  0  0  0  0  0  0  0  0  0  0
   25.0481    0.6348   -8.7924 C   0  0  0  0  0  0  0  0  0  0  0  0
   24.9891   -0.3409   -9.9862 C   0  0  1  0  0  0  0  0  0  0  0  0
   24.0071   -0.0173  -10.8855 O   0  0  0  0  0  0  0  0  0  0  0  0
   22.6789   -0.3643  -10.7341 C   0  0  0  0  0  0  0  0  0  0  0  0
   22.1446   -1.4449  -11.4409 C   0  0  0  0  0  0  0  0  0  0  0  0
   20.8287   -1.8038  -11.3034 C   0  0  0  0  0  0  0  0  0  0  0  0
   20.3390   -2.8605  -12.0052 F   0  0  0  0  0  0  0  0  0  0  0  0
   19.9621   -1.1316  -10.4715 C   0  0  0  0  0  0  0  0  0  0  0  0
   20.4768   -0.0660   -9.7705 C   0  0  0  0  0  0  0  0  0  0  0  0
   19.5981    0.6488   -8.9000 C   0  0  0  0  0  0  0  0  0  0  0  0
   18.8727    1.2128   -8.1949 N   0  0  0  0  0  0  0  0  0  0  0  0
   21.7999    0.2942   -9.9094 C   0  0  0  0  0  0  0  0  0  0  0  0
  1  2  1  1
  3  2  1  6
  3  4  1  0
  4  5  1  6
  5  6  1  1
  6  7  1  1
  7  8  1  6
  8  9  1  0
  9 10  2  0
 10 11  1  0
 11 12  1  0
 11 13  2  0
 13 14  1  0
 14 15  1  0
 15 16  3  0
 14 17  2  0
  7  3  1  0
 17  9  1  0
M  END
$$$$
