_rank1
     RDKit          3D

 17 18  0  0  0  0  0  0  0  0999 V2000
   27.6596   -1.3265   -8.9155 C   0  0  0  0  0  0  0  0  0  0  0  0
   26.3019   -0.8727   -9.1005 N   0  0  0  0  0  0  0  0  0  0  0  0
   26.1524   -0.4772  -10.4755 C   0  0  2  0  0  0  0  0  0  0  0  0
   26.7989    0.8644  -10.7604 C   0  0  0  0  0  0  0  0  0  0  0  0
   26.2513    1.1519  -12.1474 C   0  0  0  0  0  0  0  0  0  0  0  0
   24.9137    0.4399  -12.2157 C   0  0  0  0  0  0  0  0  0  0  0  0
   24.6906   -0.0873  -10.7830 C   0  0  1  0  0  0  0  0  0  0  0  0
   23.8415   -1.1621  -10.7413 O   0  0  0  0  0  0  0  0  0  0  0  0
   22.4645   -1.0568  -10.7453 C   0  0  0  0  0  0  0  0  0  0  0  0
   21.6847   -1.9956  -11.4258 C   0  0  0  0  0  0  0  0  0  0  0  0
   20.3168   -1.9072  -11.4408 C   0  0  0  0  0  0  0  0  0  0  0  0
   19.5862   -2.8368  -12.1123 F   0  0  0  0  0  0  0  0  0  0  0  0
   19.6339   -0.9013  -10.7950 C   0  0  0  0  0  0  0  0  0  0  0  0
   20.3909    0.0288  -10.1217 C   0  0  0  0  0  0  0  0  0  0  0  0
   19.7065    1.0833   -9.4430 C   0  0  0  0  0  0  0  0  0  0  0  0
   19.1549    1.9502   -8.9086 N   0  0  0  0  0  0  0  0  0  0  0  0
   21.7662   -0.0609  -10.1072 C   0  0  0  0  0  0  0  0  0  0  0  0
  1  2  1  1
  3  2  1  1
  3  4  1  0
  4  5  1  6
  5  6  1  1
  6  7  1  1
  7  8  1  6
  8  9  1  0
  9 10  2  0
 10 11  1  0
 11 12  1  0
 11 13  2  0
 13 14  1  0
 14 15  1  0
 15 16  3  0
 14 17  2  0
  7  3  1  0
 17  9  1  0
M  END
$$$$
