_rank13
     RDKit          3D

 17 18  0  0  0  0  0  0  0  0999 V2000
   20.3878   -1.6913   -9.0912 C   0  0  0  0  0  0  0  0  0  0  0  0
   20.9765   -2.1597  -10.3231 N   0  0  0  0  0  0  0  0  0  0  0  0
   21.3427   -1.0078  -11.1031 C   0  0  2  0  0  0  0  0  0  0  0  0
   21.0519   -1.1978  -12.5790 C   0  0  0  0  0  0  0  0  0  0  0  0
   21.7800   -0.0013  -13.1657 C   0  0  0  0  0  0  0  0  0  0  0  0
   22.9185    0.2957  -12.2084 C   0  0  0  0  0  0  0  0  0  0  0  0
   22.8774   -0.8686  -11.1969 C   0  0  1  0  0  0  0  0  0  0  0  0
   23.4489   -0.5446   -9.9943 O   0  0  0  0  0  0  0  0  0  0  0  0
   24.8052   -0.6123   -9.7426 C   0  0  0  0  0  0  0  0  0  0  0  0
   25.6167   -1.4892  -10.4671 C   0  0  0  0  0  0  0  0  0  0  0  0
   26.9647   -1.5700  -10.2312 C   0  0  0  0  0  0  0  0  0  0  0  0
   27.7273   -2.4336  -10.9535 F   0  0  0  0  0  0  0  0  0  0  0  0
   27.5956   -0.8026   -9.2783 C   0  0  0  0  0  0  0  0  0  0  0  0
   26.8070    0.0644   -8.5587 C   0  0  0  0  0  0  0  0  0  0  0  0
   27.4374    0.8725   -7.5633 C   0  0  0  0  0  0  0  0  0  0  0  0
   27.9647    1.5156   -6.7573 N   0  0  0  0  0  0  0  0  0  0  0  0
   25.4518    0.1450   -8.7966 C   0  0  0  0  0  0  0  0  0  0  0  0
  1  2  1  1
  3  2  1  1
  3  4  1  0
  4  5  1  6
  5  6  1  1
  6  7  1  1
  7  8  1  1
  8  9  1  0
  9 10  2  0
 10 11  1  0
 11 12  1  0
 11 13  2  0
 13 14  1  0
 14 15  1  0
 15 16  3  0
 14 17  2  0
  7  3  1  0
 17  9  1  0
M  END
$$$$
