_rank10
     RDKit          3D

 17 18  0  0  0  0  0  0  0  0999 V2000
   21.2454   -2.7233   -9.3907 C   0  0  0  0  0  0  0  0  0  0  0  0
   21.1699   -1.2819   -9.4038 N   0  0  0  0  0  0  0  0  0  0  0  0
   21.2854   -0.8465  -10.7700 C   0  0  2  0  0  0  0  0  0  0  0  0
   20.6778   -1.8390  -11.7420 C   0  0  0  0  0  0  0  0  0  0  0  0
   21.1867   -1.2875  -13.0623 C   0  0  0  0  0  0  0  0  0  0  0  0
   22.4947   -0.5910  -12.7387 C   0  0  0  0  0  0  0  0  0  0  0  0
   22.7486   -0.9302  -11.2552 C   0  0  1  0  0  0  0  0  0  0  0  0
   23.5596   -0.0161  -10.6351 O   0  0  0  0  0  0  0  0  0  0  0  0
   24.9104   -0.2060  -10.4192 C   0  0  0  0  0  0  0  0  0  0  0  0
   25.7369   -0.6519  -11.4540 C   0  0  0  0  0  0  0  0  0  0  0  0
   27.0798   -0.8460  -11.2582 C   0  0  0  0  0  0  0  0  0  0  0  0
   27.8572   -1.2806  -12.2857 F   0  0  0  0  0  0  0  0  0  0  0  0
   27.6908   -0.6170  -10.0461 C   0  0  0  0  0  0  0  0  0  0  0  0
   26.8873   -0.1778   -9.0199 C   0  0  0  0  0  0  0  0  0  0  0  0
   27.4970    0.0674   -7.7514 C   0  0  0  0  0  0  0  0  0  0  0  0
   27.9852    0.2854   -6.7240 N   0  0  0  0  0  0  0  0  0  0  0  0
   25.5373    0.0171   -9.2176 C   0  0  0  0  0  0  0  0  0  0  0  0
  1  2  1  1
  3  2  1  1
  3  4  1  0
  4  5  1  6
  5  6  1  1
  6  7  1  1
  7  8  1  1
  8  9  1  0
  9 10  2  0
 10 11  1  0
 11 12  1  0
 11 13  2  0
 13 14  1  0
 14 15  1  0
 15 16  3  0
 14 17  2  0
  7  3  1  0
 17  9  1  0
M  END
$$$$
