_rank4
     RDKit          3D

 17 18  0  0  0  0  0  0  0  0999 V2000
   26.4030    2.5308  -12.8014 C   0  0  0  0  0  0  0  0  0  0  0  0
   26.3616    1.1042  -13.0175 N   0  0  0  0  0  0  0  0  0  0  0  0
   26.7013    0.4601  -11.7769 C   0  0  2  0  0  0  0  0  0  0  0  0
   27.7611   -0.6093  -11.9567 C   0  0  0  0  0  0  0  0  0  0  0  0
   27.7063   -1.2907  -10.6007 C   0  0  0  0  0  0  0  0  0  0  0  0
   26.2870   -1.0976  -10.1018 C   0  0  0  0  0  0  0  0  0  0  0  0
   25.5511   -0.4486  -11.2925 C   0  0  1  0  0  0  0  0  0  0  0  0
   24.4466    0.2646  -10.9063 O   0  0  0  0  0  0  0  0  0  0  0  0
   23.2596   -0.3130  -10.5001 C   0  0  0  0  0  0  0  0  0  0  0  0
   22.5908    0.1638   -9.3697 C   0  0  0  0  0  0  0  0  0  0  0  0
   21.4118   -0.3969   -8.9516 C   0  0  0  0  0  0  0  0  0  0  0  0
   20.7853    0.0900   -7.8474 F   0  0  0  0  0  0  0  0  0  0  0  0
   20.8201   -1.4510   -9.6102 C   0  0  0  0  0  0  0  0  0  0  0  0
   21.4693   -1.9289  -10.7245 C   0  0  0  0  0  0  0  0  0  0  0  0
   20.8761   -3.0228  -11.4263 C   0  0  0  0  0  0  0  0  0  0  0  0
   20.4118   -3.9111  -12.0066 N   0  0  0  0  0  0  0  0  0  0  0  0
   22.6547   -1.3646  -11.1441 C   0  0  0  0  0  0  0  0  0  0  0  0
  1  2  1  1
  3  2  1  6
  3  4  1  0
  4  5  1  6
  5  6  1  1
  6  7  1  1
  7  8  1  1
  8  9  1  0
  9 10  2  0
 10 11  1  0
 11 12  1  0
 11 13  2  0
 13 14  1  0
 14 15  1  0
 15 16  3  0
 14 17  2  0
  7  3  1  0
 17  9  1  0
M  END
$$$$
