_rank2
     RDKit          3D

 17 18  0  0  0  0  0  0  0  0999 V2000
   27.6721    1.1525  -12.5392 C   0  0  0  0  0  0  0  0  0  0  0  0
   26.6016    0.2084  -12.3243 N   0  0  0  0  0  0  0  0  0  0  0  0
   26.2074    0.2951  -10.9436 C   0  0  2  0  0  0  0  0  0  0  0  0
   27.1693   -0.4332  -10.0253 C   0  0  0  0  0  0  0  0  0  0  0  0
   26.3793   -0.4275   -8.7284 C   0  0  0  0  0  0  0  0  0  0  0  0
   24.9191   -0.4004   -9.1380 C   0  0  0  0  0  0  0  0  0  0  0  0
   24.9520   -0.5615  -10.6721 C   0  0  1  0  0  0  0  0  0  0  0  0
   23.8322   -0.0582  -11.2807 O   0  0  0  0  0  0  0  0  0  0  0  0
   22.5420   -0.3775  -10.9057 C   0  0  0  0  0  0  0  0  0  0  0  0
   21.9962   -1.6210  -11.2351 C   0  0  0  0  0  0  0  0  0  0  0  0
   20.7175   -1.9554  -10.8714 C   0  0  0  0  0  0  0  0  0  0  0  0
   20.2155   -3.1737  -11.2071 F   0  0  0  0  0  0  0  0  0  0  0  0
   19.9011   -1.0988  -10.1680 C   0  0  0  0  0  0  0  0  0  0  0  0
   20.4275    0.1282   -9.8381 C   0  0  0  0  0  0  0  0  0  0  0  0
   19.6006    1.0361   -9.1079 C   0  0  0  0  0  0  0  0  0  0  0  0
   18.9326    1.7857   -8.5307 N   0  0  0  0  0  0  0  0  0  0  0  0
   21.7132    0.4636  -10.2042 C   0  0  0  0  0  0  0  0  0  0  0  0
  1  2  1  1
  3  2  1  6
  3  4  1  0
  4  5  1  6
  5  6  1  1
  6  7  1  1
  7  8  1  6
  8  9  1  0
  9 10  2  0
 10 11  1  0
 11 12  1  0
 11 13  2  0
 13 14  1  0
 14 15  1  0
 15 16  3  0
 14 17  2  0
  7  3  1  0
 17  9  1  0
M  END
$$$$
