_rank17
     RDKit          3D

 17 18  0  0  0  0  0  0  0  0999 V2000
   20.5598   -1.7647  -11.3067 C   0  0  0  0  0  0  0  0  0  0  0  0
   21.9094   -1.4783  -10.8822 N   0  0  0  0  0  0  0  0  0  0  0  0
   22.5539   -0.7357  -11.9322 C   0  0  2  0  0  0  0  0  0  0  0  0
   22.6918   -1.5456  -13.2067 C   0  0  0  0  0  0  0  0  0  0  0  0
   23.6289   -0.6565  -14.0051 C   0  0  0  0  0  0  0  0  0  0  0  0
   24.4572    0.0926  -12.9787 C   0  0  0  0  0  0  0  0  0  0  0  0
   24.0555   -0.5415  -11.6308 C   0  0  1  0  0  0  0  0  0  0  0  0
   24.2729    0.2949  -10.5673 O   0  0  0  0  0  0  0  0  0  0  0  0
   25.4174    0.2774   -9.7946 C   0  0  0  0  0  0  0  0  0  0  0  0
   26.6780    0.2537  -10.3971 C   0  0  0  0  0  0  0  0  0  0  0  0
   27.8249    0.2361   -9.6464 C   0  0  0  0  0  0  0  0  0  0  0  0
   29.0366    0.2131  -10.2630 F   0  0  0  0  0  0  0  0  0  0  0  0
   27.8075    0.2407   -8.2699 C   0  0  0  0  0  0  0  0  0  0  0  0
   26.5723    0.2641   -7.6656 C   0  0  0  0  0  0  0  0  0  0  0  0
   26.5265    0.2693   -6.2377 C   0  0  0  0  0  0  0  0  0  0  0  0
   26.4988    0.2558   -5.0799 N   0  0  0  0  0  0  0  0  0  0  0  0
   25.4197    0.2817   -8.4211 C   0  0  0  0  0  0  0  0  0  0  0  0
  1  2  1  1
  3  2  1  1
  3  4  1  0
  4  5  1  6
  5  6  1  1
  6  7  1  1
  7  8  1  1
  8  9  1  0
  9 10  2  0
 10 11  1  0
 11 12  1  0
 11 13  2  0
 13 14  1  0
 14 15  1  0
 15 16  3  0
 14 17  2  0
  7  3  1  0
 17  9  1  0
M  END
$$$$
