_rank4
     RDKit          3D

 37 40  0  0  0  0  0  0  0  0999 V2000
   -3.3902   -7.3225    8.0272 C   0  0  0  0  0  0  0  0  0  0  0  0
   -3.3514   -8.0830    9.2850 N   0  0  0  0  0  0  0  0  0  0  0  0
   -4.1528   -9.1867    9.3973 N   0  0  0  0  0  0  0  0  0  0  0  0
   -3.7940  -10.2881    9.8834 C   0  0  0  0  0  0  0  0  0  0  0  0
   -3.4647  -11.4030    9.0709 N   0  0  0  0  0  0  0  0  0  0  0  0
   -4.1918  -13.0999    9.3788 Br  0  0  0  0  0  0  0  0  0  0  0  0
   -3.7443  -10.4289   11.2921 N   0  0  0  0  0  0  0  0  0  0  0  0
   -4.8897  -10.5891   12.0625 N   0  0  0  0  0  0  0  0  0  0  0  0
   -5.2614  -11.6891   12.7059 C   0  0  0  0  0  0  0  0  0  0  0  0
   -4.5781  -12.7417   12.6010 O   0  0  0  0  0  0  0  0  0  0  0  0
   -6.3731  -11.7056   13.4764 N   0  0  0  0  0  0  0  0  0  0  0  0
   -7.1544  -10.6252   13.6305 C   0  0  0  0  0  0  0  0  0  0  0  0
   -8.3008  -10.6855   14.4676 N   0  0  0  0  0  0  0  0  0  0  0  0
   -8.7287  -11.8566   15.1200 C   0  0  0  0  0  0  0  0  0  0  0  0
   -8.9325  -12.9983   14.3815 C   0  0  0  0  0  0  0  0  0  0  0  0
   -9.3475  -14.1788   14.9802 C   0  0  0  0  0  0  0  0  0  0  0  0
   -9.6215  -15.4425   14.5154 C   0  0  0  0  0  0  0  0  0  0  0  0
   -9.9878  -16.2205   15.5504 N   0  0  0  0  0  0  0  0  0  0  0  0
  -10.3485  -17.6370   15.4241 C   0  0  0  0  0  0  0  0  0  0  0  0
   -9.9502  -15.4807   16.6370 N   0  0  0  0  0  0  0  0  0  0  0  0
   -9.5643  -14.2313   16.3315 C   0  0  0  0  0  0  0  0  0  0  0  0
   -9.3565  -13.0761   17.0663 C   0  0  0  0  0  0  0  0  0  0  0  0
   -8.9450  -11.9071   16.4711 C   0  0  0  0  0  0  0  0  0  0  0  0
   -8.7576  -10.8028   17.2656 F   0  0  0  0  0  0  0  0  0  0  0  0
   -6.7636   -9.5000   12.9629 N   0  0  0  0  0  0  0  0  0  0  0  0
   -7.5443   -8.3169   13.1578 C   0  0  0  0  0  0  0  0  0  0  0  0
   -8.6538   -8.0544   12.2397 C   0  0  0  0  0  0  0  0  0  0  0  0
   -9.1475   -9.1106   11.4390 C   0  0  0  0  0  0  0  0  0  0  0  0
  -10.1933   -8.9337   10.5735 C   0  0  0  0  0  0  0  0  0  0  0  0
  -10.6630   -9.9563    9.8078 F   0  0  0  0  0  0  0  0  0  0  0  0
  -10.8279   -7.7189   10.4293 C   0  0  0  0  0  0  0  0  0  0  0  0
  -11.8559   -7.5689    9.5665 F   0  0  0  0  0  0  0  0  0  0  0  0
  -10.3730   -6.6745   11.1926 C   0  0  0  0  0  0  0  0  0  0  0  0
   -9.3062   -6.8656   12.0723 C   0  0  0  0  0  0  0  0  0  0  0  0
   -8.9399   -5.7849   12.7876 F   0  0  0  0  0  0  0  0  0  0  0  0
   -5.6684   -9.4643   12.1994 C   0  0  0  0  0  0  0  0  0  0  0  0
   -5.3041   -8.4111   11.5852 O   0  0  0  0  0  0  0  0  0  0  0  0
  1  2  1  6
  2  3  1  0
  3  4  2  3
  4  5  1  0
  5  6  1  0
  4  7  1  0
  7  8  1  0
  8  9  1  0
  9 10  2  0
  9 11  1  0
 11 12  2  0
 12 13  1  0
 13 14  1  0
 14 15  2  0
 15 16  1  0
 16 17  2  0
 17 18  1  0
 19 18  1  1
 18 20  1  0
 20 21  2  0
 21 22  1  0
 22 23  2  0
 23 24  1  0
 12 25  1  0
 26 25  1  6
 26 27  1  0
 27 28  2  0
 28 29  1  0
 29 30  1  0
 29 31  2  0
 31 32  1  0
 31 33  1  0
 33 34  2  0
 34 35  1  0
 25 36  1  0
 36 37  2  0
 36  8  1  0
 23 14  1  0
 34 27  1  0
 21 16  1  0
M  END
$$$$
