_rank1
     RDKit          3D

 37 40  0  0  0  0  0  0  0  0999 V2000
   -8.7892   -9.0372   11.6993 C   0  0  0  0  0  0  0  0  0  0  0  0
   -7.7771   -8.4891   10.7843 N   0  0  0  0  0  0  0  0  0  0  0  0
   -6.8424   -7.6299   11.2950 N   0  0  0  0  0  0  0  0  0  0  0  0
   -6.4291   -7.6409   12.4813 C   0  0  0  0  0  0  0  0  0  0  0  0
   -6.9350   -6.7561   13.4676 N   0  0  0  0  0  0  0  0  0  0  0  0
   -7.7110   -5.1135   13.0177 Br  0  0  0  0  0  0  0  0  0  0  0  0
   -5.4025   -8.5494   12.8383 N   0  0  0  0  0  0  0  0  0  0  0  0
   -4.9577   -8.6890   14.1474 N   0  0  0  0  0  0  0  0  0  0  0  0
   -3.6949   -8.6879   14.5568 C   0  0  0  0  0  0  0  0  0  0  0  0
   -2.7601   -8.6118   13.7165 O   0  0  0  0  0  0  0  0  0  0  0  0
   -3.3868   -8.7724   15.8712 N   0  0  0  0  0  0  0  0  0  0  0  0
   -4.3282   -8.8632   16.8237 C   0  0  0  0  0  0  0  0  0  0  0  0
   -3.9558   -8.9284   18.1932 N   0  0  0  0  0  0  0  0  0  0  0  0
   -2.7879   -9.5639   18.6537 C   0  0  0  0  0  0  0  0  0  0  0  0
   -1.5641   -9.0091   18.3626 C   0  0  0  0  0  0  0  0  0  0  0  0
   -0.3852   -9.5947   18.8004 C   0  0  0  0  0  0  0  0  0  0  0  0
    0.9457   -9.2777   18.6725 C   0  0  0  0  0  0  0  0  0  0  0  0
    1.6809  -10.2067   19.3105 N   0  0  0  0  0  0  0  0  0  0  0  0
    3.1460  -10.1838   19.3851 C   0  0  0  0  0  0  0  0  0  0  0  0
    0.8503  -11.0860   19.8265 N   0  0  0  0  0  0  0  0  0  0  0  0
   -0.4170  -10.7481   19.5382 C   0  0  0  0  0  0  0  0  0  0  0  0
   -1.6544  -11.2992   19.8258 C   0  0  0  0  0  0  0  0  0  0  0  0
   -2.8217  -10.7171   19.3912 C   0  0  0  0  0  0  0  0  0  0  0  0
   -4.0112  -11.3206   19.7180 F   0  0  0  0  0  0  0  0  0  0  0  0
   -5.6234   -8.8653   16.3911 N   0  0  0  0  0  0  0  0  0  0  0  0
   -6.6484   -8.8997   17.3888 C   0  0  0  0  0  0  0  0  0  0  0  0
   -6.7888  -10.1081   18.2029 C   0  0  0  0  0  0  0  0  0  0  0  0
   -6.7057  -10.0015   19.6108 C   0  0  0  0  0  0  0  0  0  0  0  0
   -6.8453  -11.0911   20.4278 C   0  0  0  0  0  0  0  0  0  0  0  0
   -6.7654  -10.9790   21.7819 F   0  0  0  0  0  0  0  0  0  0  0  0
   -7.0751  -12.3555   19.9303 C   0  0  0  0  0  0  0  0  0  0  0  0
   -7.2068  -13.4153   20.7569 F   0  0  0  0  0  0  0  0  0  0  0  0
   -7.1619  -12.4921   18.5686 C   0  0  0  0  0  0  0  0  0  0  0  0
   -7.0181  -11.3747   17.7445 C   0  0  0  0  0  0  0  0  0  0  0  0
   -7.1319  -11.6069   16.4228 F   0  0  0  0  0  0  0  0  0  0  0  0
   -5.9467   -8.7806   15.0980 C   0  0  0  0  0  0  0  0  0  0  0  0
   -7.1553   -8.7753   14.7003 O   0  0  0  0  0  0  0  0  0  0  0  0
  1  2  1  6
  2  3  1  0
  3  4  2  3
  4  5  1  0
  5  6  1  0
  4  7  1  0
  7  8  1  0
  8  9  1  0
  9 10  2  0
  9 11  1  0
 11 12  2  0
 12 13  1  0
 13 14  1  0
 14 15  2  0
 15 16  1  0
 16 17  2  0
 17 18  1  0
 19 18  1  1
 18 20  1  0
 20 21  2  0
 21 22  1  0
 22 23  2  0
 23 24  1  0
 12 25  1  0
 26 25  1  6
 26 27  1  0
 27 28  2  0
 28 29  1  0
 29 30  1  0
 29 31  2  0
 31 32  1  0
 31 33  1  0
 33 34  2  0
 34 35  1  0
 25 36  1  0
 36 37  2  0
 36  8  1  0
 23 14  1  0
 34 27  1  0
 21 16  1  0
M  END
$$$$
