_rank5
     RDKit          3D

 37 40  0  0  0  0  0  0  0  0999 V2000
   -2.8732   -8.0283   16.5475 C   0  0  0  0  0  0  0  0  0  0  0  0
   -3.8270   -7.6216   15.5049 N   0  0  0  0  0  0  0  0  0  0  0  0
   -3.4801   -7.8264   14.1970 N   0  0  0  0  0  0  0  0  0  0  0  0
   -4.1592   -7.4553   13.2074 C   0  0  0  0  0  0  0  0  0  0  0  0
   -5.0436   -6.3482   13.2684 N   0  0  0  0  0  0  0  0  0  0  0  0
   -6.8510   -6.5498   13.7106 Br  0  0  0  0  0  0  0  0  0  0  0  0
   -4.0586   -8.1855   11.9977 N   0  0  0  0  0  0  0  0  0  0  0  0
   -4.6603   -9.4266   11.8282 N   0  0  0  0  0  0  0  0  0  0  0  0
   -4.5944  -10.1953   10.7479 C   0  0  0  0  0  0  0  0  0  0  0  0
   -3.9871   -9.7897    9.7220 O   0  0  0  0  0  0  0  0  0  0  0  0
   -5.1759  -11.4164   10.7231 N   0  0  0  0  0  0  0  0  0  0  0  0
   -5.8456  -11.9128   11.7750 C   0  0  0  0  0  0  0  0  0  0  0  0
   -6.4215  -13.2099   11.7086 N   0  0  0  0  0  0  0  0  0  0  0  0
   -6.5797  -13.9318   10.5112 C   0  0  0  0  0  0  0  0  0  0  0  0
   -7.8334  -14.3672   10.1522 C   0  0  0  0  0  0  0  0  0  0  0  0
   -8.0408  -15.0764    8.9782 C   0  0  0  0  0  0  0  0  0  0  0  0
   -9.1473  -15.6210    8.3721 C   0  0  0  0  0  0  0  0  0  0  0  0
   -8.7723  -16.2071    7.2203 N   0  0  0  0  0  0  0  0  0  0  0  0
   -9.6976  -16.8872    6.3071 C   0  0  0  0  0  0  0  0  0  0  0  0
   -7.4735  -16.0440    7.0954 N   0  0  0  0  0  0  0  0  0  0  0  0
   -6.9912  -15.3598    8.1454 C   0  0  0  0  0  0  0  0  0  0  0  0
   -5.7325  -14.9172    8.5160 C   0  0  0  0  0  0  0  0  0  0  0  0
   -5.5290  -14.2142    9.6799 C   0  0  0  0  0  0  0  0  0  0  0  0
   -4.2523  -13.8062    9.9794 F   0  0  0  0  0  0  0  0  0  0  0  0
   -5.9086  -11.1129   12.8800 N   0  0  0  0  0  0  0  0  0  0  0  0
   -6.5640  -11.6420   14.0366 C   0  0  0  0  0  0  0  0  0  0  0  0
   -6.5887  -10.8321   15.2557 C   0  0  0  0  0  0  0  0  0  0  0  0
   -7.8216  -10.3047   15.7053 C   0  0  0  0  0  0  0  0  0  0  0  0
   -7.9137   -9.5541   16.8465 C   0  0  0  0  0  0  0  0  0  0  0  0
   -9.1048   -9.0517   17.2726 F   0  0  0  0  0  0  0  0  0  0  0  0
   -6.8138   -9.2671   17.6256 C   0  0  0  0  0  0  0  0  0  0  0  0
   -6.9300   -8.5220   18.7460 F   0  0  0  0  0  0  0  0  0  0  0  0
   -5.6034   -9.7650   17.2169 C   0  0  0  0  0  0  0  0  0  0  0  0
   -5.5204  -10.5293   16.0519 C   0  0  0  0  0  0  0  0  0  0  0  0
   -4.2919  -10.9844   15.7397 F   0  0  0  0  0  0  0  0  0  0  0  0
   -5.3390   -9.9056   12.9236 C   0  0  0  0  0  0  0  0  0  0  0  0
   -5.3939   -9.1671   13.9582 O   0  0  0  0  0  0  0  0  0  0  0  0
  1  2  1  6
  2  3  1  0
  3  4  2  3
  4  5  1  0
  5  6  1  0
  4  7  1  0
  7  8  1  0
  8  9  1  0
  9 10  2  0
  9 11  1  0
 11 12  2  0
 12 13  1  0
 13 14  1  0
 14 15  2  0
 15 16  1  0
 16 17  2  0
 17 18  1  0
 19 18  1  1
 18 20  1  0
 20 21  2  0
 21 22  1  0
 22 23  2  0
 23 24  1  0
 12 25  1  0
 26 25  1  6
 26 27  1  0
 27 28  2  0
 28 29  1  0
 29 30  1  0
 29 31  2  0
 31 32  1  0
 31 33  1  0
 33 34  2  0
 34 35  1  0
 25 36  1  0
 36 37  2  0
 36  8  1  0
 23 14  1  0
 34 27  1  0
 21 16  1  0
M  END
$$$$
