_rank8
     RDKit          3D

 37 40  0  0  0  0  0  0  0  0999 V2000
   -3.8599  -12.8657    8.5514 C   0  0  0  0  0  0  0  0  0  0  0  0
   -3.3387  -11.5680    8.9657 N   0  0  0  0  0  0  0  0  0  0  0  0
   -3.9493  -10.8446   10.0038 N   0  0  0  0  0  0  0  0  0  0  0  0
   -3.6601   -9.6118   10.3099 C   0  0  0  0  0  0  0  0  0  0  0  0
   -2.3033   -9.1541   10.3826 N   0  0  0  0  0  0  0  0  0  0  0  0
   -1.0425   -9.5454    9.0197 Br  0  0  0  0  0  0  0  0  0  0  0  0
   -4.7195   -8.6857   10.5917 N   0  0  0  0  0  0  0  0  0  0  0  0
   -6.0345   -9.1082   10.8797 N   0  0  0  0  0  0  0  0  0  0  0  0
   -6.7878   -9.7304    9.9312 C   0  0  0  0  0  0  0  0  0  0  0  0
   -6.3293   -9.9348    8.7754 O   0  0  0  0  0  0  0  0  0  0  0  0
   -8.0449  -10.1259   10.2224 N   0  0  0  0  0  0  0  0  0  0  0  0
   -8.5961   -9.8815   11.4364 C   0  0  0  0  0  0  0  0  0  0  0  0
   -9.9090  -10.4010   11.7092 N   0  0  0  0  0  0  0  0  0  0  0  0
  -10.7878  -10.8823   10.6769 C   0  0  0  0  0  0  0  0  0  0  0  0
  -11.8169  -10.0577   10.1604 C   0  0  0  0  0  0  0  0  0  0  0  0
  -12.6517  -10.5932    9.1861 C   0  0  0  0  0  0  0  0  0  0  0  0
  -13.7188  -10.0674    8.4982 C   0  0  0  0  0  0  0  0  0  0  0  0
  -14.1696  -11.0365    7.6671 N   0  0  0  0  0  0  0  0  0  0  0  0
  -15.2501  -10.8886    6.7039 C   0  0  0  0  0  0  0  0  0  0  0  0
  -13.4330  -12.1363    7.7830 N   0  0  0  0  0  0  0  0  0  0  0  0
  -12.5050  -11.8694    8.7206 C   0  0  0  0  0  0  0  0  0  0  0  0
  -11.5138  -12.7148    9.2044 C   0  0  0  0  0  0  0  0  0  0  0  0
  -10.6526  -12.2160   10.2008 C   0  0  0  0  0  0  0  0  0  0  0  0
   -9.6757  -13.0212   10.6901 F   0  0  0  0  0  0  0  0  0  0  0  0
   -7.8755   -9.1991   12.3876 N   0  0  0  0  0  0  0  0  0  0  0  0
   -8.4762   -8.7847   13.6759 C   0  0  0  0  0  0  0  0  0  0  0  0
   -9.2571   -7.5023   13.5142 C   0  0  0  0  0  0  0  0  0  0  0  0
   -9.1519   -6.7559   12.3272 C   0  0  0  0  0  0  0  0  0  0  0  0
   -9.8960   -5.5840   12.1582 C   0  0  0  0  0  0  0  0  0  0  0  0
   -9.7904   -4.8753   11.0065 F   0  0  0  0  0  0  0  0  0  0  0  0
  -10.7499   -5.1453   13.1734 C   0  0  0  0  0  0  0  0  0  0  0  0
  -11.4764   -4.0117   13.0104 F   0  0  0  0  0  0  0  0  0  0  0  0
  -10.8563   -5.8753   14.3594 C   0  0  0  0  0  0  0  0  0  0  0  0
  -10.1145   -7.0481   14.5337 C   0  0  0  0  0  0  0  0  0  0  0  0
  -10.2219   -7.7269   15.7019 F   0  0  0  0  0  0  0  0  0  0  0  0
   -6.5832   -8.8302   12.0985 C   0  0  0  0  0  0  0  0  0  0  0  0
   -5.8852   -8.2343   12.9664 O   0  0  0  0  0  0  0  0  0  0  0  0
  1  2  1  6
  2  3  1  0
  3  4  2  3
  4  5  1  0
  5  6  1  0
  4  7  1  0
  7  8  1  0
  8  9  1  0
  9 10  2  0
  9 11  1  0
 11 12  2  0
 12 13  1  0
 13 14  1  0
 14 15  2  0
 15 16  1  0
 16 17  2  0
 17 18  1  0
 19 18  1  1
 18 20  1  0
 20 21  2  0
 21 22  1  0
 22 23  2  0
 23 24  1  0
 12 25  1  0
 26 25  1  6
 26 27  1  0
 27 28  2  0
 28 29  1  0
 29 30  1  0
 29 31  2  0
 31 32  1  0
 31 33  1  0
 33 34  2  0
 34 35  1  0
 25 36  1  0
 36 37  2  0
 36  8  1  0
 23 14  1  0
 34 27  1  0
 21 16  1  0
M  END
$$$$
