_rank10
     RDKit          3D

 37 40  0  0  0  0  0  0  0  0999 V2000
   -5.0763  -10.8318   20.1507 C   0  0  0  0  0  0  0  0  0  0  0  0
   -5.3820  -10.9035   18.7142 N   0  0  0  0  0  0  0  0  0  0  0  0
   -6.3960  -10.1223   18.2300 N   0  0  0  0  0  0  0  0  0  0  0  0
   -6.2390   -9.0138   17.6601 C   0  0  0  0  0  0  0  0  0  0  0  0
   -6.8245   -7.8196   18.1525 N   0  0  0  0  0  0  0  0  0  0  0  0
   -8.2540   -7.8443   19.3603 Br  0  0  0  0  0  0  0  0  0  0  0  0
   -5.4740   -8.9608   16.4690 N   0  0  0  0  0  0  0  0  0  0  0  0
   -5.7693   -9.7473   15.3621 N   0  0  0  0  0  0  0  0  0  0  0  0
   -4.9255  -10.5320   14.7029 C   0  0  0  0  0  0  0  0  0  0  0  0
   -3.7103  -10.5674   15.0317 O   0  0  0  0  0  0  0  0  0  0  0  0
   -5.3461  -11.2995   13.6715 N   0  0  0  0  0  0  0  0  0  0  0  0
   -6.6236  -11.3094   13.2599 C   0  0  0  0  0  0  0  0  0  0  0  0
   -7.0219  -12.1487   12.1850 N   0  0  0  0  0  0  0  0  0  0  0  0
   -6.1358  -12.9816   11.4770 C   0  0  0  0  0  0  0  0  0  0  0  0
   -6.3568  -14.3386   11.4656 C   0  0  0  0  0  0  0  0  0  0  0  0
   -5.5153  -15.1995   10.7764 C   0  0  0  0  0  0  0  0  0  0  0  0
   -5.4863  -16.5600   10.5856 C   0  0  0  0  0  0  0  0  0  0  0  0
   -4.4311  -16.8717    9.8109 N   0  0  0  0  0  0  0  0  0  0  0  0
   -4.0925  -18.2380    9.3973 C   0  0  0  0  0  0  0  0  0  0  0  0
   -3.8079  -15.7513    9.5181 N   0  0  0  0  0  0  0  0  0  0  0  0
   -4.4377  -14.7107   10.0870 C   0  0  0  0  0  0  0  0  0  0  0  0
   -4.2236  -13.3427   10.1049 C   0  0  0  0  0  0  0  0  0  0  0  0
   -5.0589  -12.4909   10.7884 C   0  0  0  0  0  0  0  0  0  0  0  0
   -4.7838  -11.1458   10.7581 F   0  0  0  0  0  0  0  0  0  0  0  0
   -7.4822  -10.4972   13.9437 N   0  0  0  0  0  0  0  0  0  0  0  0
   -8.8617  -10.5339   13.5654 C   0  0  0  0  0  0  0  0  0  0  0  0
   -9.3011   -9.6953   12.4490 C   0  0  0  0  0  0  0  0  0  0  0  0
  -10.3542  -10.1498   11.6213 C   0  0  0  0  0  0  0  0  0  0  0  0
  -10.8219   -9.4052   10.5721 C   0  0  0  0  0  0  0  0  0  0  0  0
  -11.8369   -9.8497    9.7816 F   0  0  0  0  0  0  0  0  0  0  0  0
  -10.2972   -8.1701   10.2585 C   0  0  0  0  0  0  0  0  0  0  0  0
  -10.7741   -7.4556    9.2165 F   0  0  0  0  0  0  0  0  0  0  0  0
   -9.2751   -7.7007   11.0429 C   0  0  0  0  0  0  0  0  0  0  0  0
   -8.8057   -8.4679   12.1104 C   0  0  0  0  0  0  0  0  0  0  0  0
   -7.8091   -7.9173   12.8299 F   0  0  0  0  0  0  0  0  0  0  0  0
   -7.0857   -9.7342   14.9656 C   0  0  0  0  0  0  0  0  0  0  0  0
   -7.8912   -8.9847   15.6046 O   0  0  0  0  0  0  0  0  0  0  0  0
  1  2  1  6
  2  3  1  0
  3  4  2  3
  4  5  1  0
  5  6  1  0
  4  7  1  0
  7  8  1  0
  8  9  1  0
  9 10  2  0
  9 11  1  0
 11 12  2  0
 12 13  1  0
 13 14  1  0
 14 15  2  0
 15 16  1  0
 16 17  2  0
 17 18  1  0
 19 18  1  1
 18 20  1  0
 20 21  2  0
 21 22  1  0
 22 23  2  0
 23 24  1  0
 12 25  1  0
 26 25  1  6
 26 27  1  0
 27 28  2  0
 28 29  1  0
 29 30  1  0
 29 31  2  0
 31 32  1  0
 31 33  1  0
 33 34  2  0
 34 35  1  0
 25 36  1  0
 36 37  2  0
 36  8  1  0
 23 14  1  0
 34 27  1  0
 21 16  1  0
M  END
$$$$
