_rank3
     RDKit          3D

 37 40  0  0  0  0  0  0  0  0999 V2000
   -7.3350  -10.6509   11.4358 C   0  0  0  0  0  0  0  0  0  0  0  0
   -7.2351   -9.4743   12.3118 N   0  0  0  0  0  0  0  0  0  0  0  0
   -6.4595   -8.4253   11.8983 N   0  0  0  0  0  0  0  0  0  0  0  0
   -6.3095   -7.3501   12.5305 C   0  0  0  0  0  0  0  0  0  0  0  0
   -7.2667   -6.3046   12.4842 N   0  0  0  0  0  0  0  0  0  0  0  0
   -8.2351   -5.9189   10.9297 Br  0  0  0  0  0  0  0  0  0  0  0  0
   -5.1300   -7.1653   13.2930 N   0  0  0  0  0  0  0  0  0  0  0  0
   -4.7603   -8.0368   14.3104 N   0  0  0  0  0  0  0  0  0  0  0  0
   -3.5318   -8.2356   14.7725 C   0  0  0  0  0  0  0  0  0  0  0  0
   -2.5550   -7.6461   14.2395 O   0  0  0  0  0  0  0  0  0  0  0  0
   -3.3033   -9.0703   15.8121 N   0  0  0  0  0  0  0  0  0  0  0  0
   -4.2926   -9.7381   16.4260 C   0  0  0  0  0  0  0  0  0  0  0  0
   -4.0054  -10.5877   17.5279 N   0  0  0  0  0  0  0  0  0  0  0  0
   -2.7033  -10.8431   17.9964 C   0  0  0  0  0  0  0  0  0  0  0  0
   -1.7324   -9.8834   17.8330 C   0  0  0  0  0  0  0  0  0  0  0  0
   -0.4364  -10.0859   18.2841 C   0  0  0  0  0  0  0  0  0  0  0  0
    0.7117   -9.3310   18.2670 C   0  0  0  0  0  0  0  0  0  0  0  0
    1.7015  -10.0248   18.8582 N   0  0  0  0  0  0  0  0  0  0  0  0
    3.0701   -9.5224   19.0228 C   0  0  0  0  0  0  0  0  0  0  0  0
    1.2045  -11.1814   19.2383 N   0  0  0  0  0  0  0  0  0  0  0  0
   -0.0947  -11.2567   18.9071 C   0  0  0  0  0  0  0  0  0  0  0  0
   -1.0796  -12.2170   19.0666 C   0  0  0  0  0  0  0  0  0  0  0  0
   -2.3636  -12.0143   18.6190 C   0  0  0  0  0  0  0  0  0  0  0  0
   -3.2867  -13.0120   18.8153 F   0  0  0  0  0  0  0  0  0  0  0  0
   -5.5517   -9.5275   15.9413 N   0  0  0  0  0  0  0  0  0  0  0  0
   -6.6321  -10.1794   16.6158 C   0  0  0  0  0  0  0  0  0  0  0  0
   -6.6944  -10.0956   18.0759 C   0  0  0  0  0  0  0  0  0  0  0  0
   -6.8877   -8.8333   18.6840 C   0  0  0  0  0  0  0  0  0  0  0  0
   -6.9715   -8.6908   20.0430 C   0  0  0  0  0  0  0  0  0  0  0  0
   -7.1591   -7.4722   20.6196 F   0  0  0  0  0  0  0  0  0  0  0  0
   -6.8733   -9.7655   20.9001 C   0  0  0  0  0  0  0  0  0  0  0  0
   -6.9565   -9.5987   22.2376 F   0  0  0  0  0  0  0  0  0  0  0  0
   -6.6864  -11.0036   20.3413 C   0  0  0  0  0  0  0  0  0  0  0  0
   -6.6024  -11.1380   18.9544 C   0  0  0  0  0  0  0  0  0  0  0  0
   -6.4314  -12.3942   18.5000 F   0  0  0  0  0  0  0  0  0  0  0  0
   -5.7968   -8.7057   14.9174 C   0  0  0  0  0  0  0  0  0  0  0  0
   -6.9728   -8.5069   14.4741 O   0  0  0  0  0  0  0  0  0  0  0  0
  1  2  1  6
  2  3  1  0
  3  4  2  3
  4  5  1  0
  5  6  1  0
  4  7  1  0
  7  8  1  0
  8  9  1  0
  9 10  2  0
  9 11  1  0
 11 12  2  0
 12 13  1  0
 13 14  1  0
 14 15  2  0
 15 16  1  0
 16 17  2  0
 17 18  1  0
 19 18  1  1
 18 20  1  0
 20 21  2  0
 21 22  1  0
 22 23  2  0
 23 24  1  0
 12 25  1  0
 26 25  1  6
 26 27  1  0
 27 28  2  0
 28 29  1  0
 29 30  1  0
 29 31  2  0
 31 32  1  0
 31 33  1  0
 33 34  2  0
 34 35  1  0
 25 36  1  0
 36 37  2  0
 36  8  1  0
 23 14  1  0
 34 27  1  0
 21 16  1  0
M  END
$$$$
