_rank2
     RDKit          3D

 37 40  0  0  0  0  0  0  0  0999 V2000
   -4.6451  -13.0173    8.3135 C   0  0  0  0  0  0  0  0  0  0  0  0
   -3.8584  -12.4605    9.4082 N   0  0  0  0  0  0  0  0  0  0  0  0
   -4.2122  -11.2361    9.9993 N   0  0  0  0  0  0  0  0  0  0  0  0
   -3.3628  -10.3019   10.3202 C   0  0  0  0  0  0  0  0  0  0  0  0
   -1.9731  -10.4012    9.9817 N   0  0  0  0  0  0  0  0  0  0  0  0
   -0.6610   -9.3152   10.8180 Br  0  0  0  0  0  0  0  0  0  0  0  0
   -3.8199   -9.1465   11.0382 N   0  0  0  0  0  0  0  0  0  0  0  0
   -5.1379   -9.0357   11.5292 N   0  0  0  0  0  0  0  0  0  0  0  0
   -6.1995   -9.0359   10.6764 C   0  0  0  0  0  0  0  0  0  0  0  0
   -6.0264   -9.1272    9.4316 O   0  0  0  0  0  0  0  0  0  0  0  0
   -7.4538   -8.9265   11.1624 N   0  0  0  0  0  0  0  0  0  0  0  0
   -7.6834   -8.7754   12.4898 C   0  0  0  0  0  0  0  0  0  0  0  0
   -9.0455   -8.7467   12.9500 N   0  0  0  0  0  0  0  0  0  0  0  0
  -10.1692   -8.9523   12.0754 C   0  0  0  0  0  0  0  0  0  0  0  0
  -10.4949  -10.2492   11.6090 C   0  0  0  0  0  0  0  0  0  0  0  0
  -11.5739  -10.3761   10.7415 C   0  0  0  0  0  0  0  0  0  0  0  0
  -12.1350  -11.4681   10.1240 C   0  0  0  0  0  0  0  0  0  0  0  0
  -13.1693  -11.0127    9.3786 N   0  0  0  0  0  0  0  0  0  0  0  0
  -14.0845  -11.8404    8.6077 C   0  0  0  0  0  0  0  0  0  0  0  0
  -13.2992   -9.6965    9.5078 N   0  0  0  0  0  0  0  0  0  0  0  0
  -12.3161   -9.3020   10.3381 C   0  0  0  0  0  0  0  0  0  0  0  0
  -12.0272   -8.0117   10.7655 C   0  0  0  0  0  0  0  0  0  0  0  0
  -10.9348   -7.8365   11.6367 C   0  0  0  0  0  0  0  0  0  0  0  0
  -10.6317   -6.5863   12.0694 F   0  0  0  0  0  0  0  0  0  0  0  0
   -6.6230   -8.7094   13.3622 N   0  0  0  0  0  0  0  0  0  0  0  0
   -6.8101   -8.4067   14.7994 C   0  0  0  0  0  0  0  0  0  0  0  0
   -6.7448   -9.6695   15.6250 C   0  0  0  0  0  0  0  0  0  0  0  0
   -6.8074  -10.9270   14.9990 C   0  0  0  0  0  0  0  0  0  0  0  0
   -6.7161  -12.1004   15.7543 C   0  0  0  0  0  0  0  0  0  0  0  0
   -6.7723  -13.3077   15.1386 F   0  0  0  0  0  0  0  0  0  0  0  0
   -6.5640  -12.0292   17.1414 C   0  0  0  0  0  0  0  0  0  0  0  0
   -6.4704  -13.1655   17.8759 F   0  0  0  0  0  0  0  0  0  0  0  0
   -6.5080  -10.7852   17.7740 C   0  0  0  0  0  0  0  0  0  0  0  0
   -6.5987   -9.6085   17.0235 C   0  0  0  0  0  0  0  0  0  0  0  0
   -6.5610   -8.4149   17.6645 F   0  0  0  0  0  0  0  0  0  0  0  0
   -5.3495   -8.8574   12.8662 C   0  0  0  0  0  0  0  0  0  0  0  0
   -4.3584   -8.8376   13.6490 O   0  0  0  0  0  0  0  0  0  0  0  0
  1  2  1  6
  2  3  1  0
  3  4  2  3
  4  5  1  0
  5  6  1  0
  4  7  1  0
  7  8  1  0
  8  9  1  0
  9 10  2  0
  9 11  1  0
 11 12  2  0
 12 13  1  0
 13 14  1  0
 14 15  2  0
 15 16  1  0
 16 17  2  0
 17 18  1  0
 19 18  1  1
 18 20  1  0
 20 21  2  0
 21 22  1  0
 22 23  2  0
 23 24  1  0
 12 25  1  0
 26 25  1  6
 26 27  1  0
 27 28  2  0
 28 29  1  0
 29 30  1  0
 29 31  2  0
 31 32  1  0
 31 33  1  0
 33 34  2  0
 34 35  1  0
 25 36  1  0
 36 37  2  0
 36  8  1  0
 23 14  1  0
 34 27  1  0
 21 16  1  0
M  END
$$$$
