_rank11
     RDKit          3D

 37 40  0  0  0  0  0  0  0  0999 V2000
  -10.7927   -8.2386    8.0856 C   0  0  0  0  0  0  0  0  0  0  0  0
   -9.9181   -9.3846    8.3748 N   0  0  0  0  0  0  0  0  0  0  0  0
   -9.7753   -9.7751    9.6787 N   0  0  0  0  0  0  0  0  0  0  0  0
   -9.5193  -10.9464   10.0536 C   0  0  0  0  0  0  0  0  0  0  0  0
  -10.5011  -11.9699   10.0635 N   0  0  0  0  0  0  0  0  0  0  0  0
  -12.0417  -11.8724    9.0052 Br  0  0  0  0  0  0  0  0  0  0  0  0
   -8.2119  -11.2473   10.5085 N   0  0  0  0  0  0  0  0  0  0  0  0
   -7.4721  -10.3592   11.2799 N   0  0  0  0  0  0  0  0  0  0  0  0
   -6.1651  -10.4089   11.5066 C   0  0  0  0  0  0  0  0  0  0  0  0
   -5.4822  -11.3633   11.0498 O   0  0  0  0  0  0  0  0  0  0  0  0
   -5.5446   -9.4487   12.2296 N   0  0  0  0  0  0  0  0  0  0  0  0
   -6.2070   -8.4057   12.7538 C   0  0  0  0  0  0  0  0  0  0  0  0
   -5.5078   -7.4106   13.4882 N   0  0  0  0  0  0  0  0  0  0  0  0
   -4.6343   -7.6980   14.5534 C   0  0  0  0  0  0  0  0  0  0  0  0
   -4.6717   -8.9443   15.1328 C   0  0  0  0  0  0  0  0  0  0  0  0
   -3.8259   -9.2771   16.1807 C   0  0  0  0  0  0  0  0  0  0  0  0
   -3.6364  -10.4103   16.9343 C   0  0  0  0  0  0  0  0  0  0  0  0
   -2.6616  -10.1811   17.8332 N   0  0  0  0  0  0  0  0  0  0  0  0
   -2.1902  -11.1757   18.8033 C   0  0  0  0  0  0  0  0  0  0  0  0
   -2.2442   -8.9460   17.6610 N   0  0  0  0  0  0  0  0  0  0  0  0
   -2.9282   -8.3625   16.6636 C   0  0  0  0  0  0  0  0  0  0  0  0
   -2.8985   -7.1101   16.0736 C   0  0  0  0  0  0  0  0  0  0  0  0
   -3.7375   -6.7822   15.0349 C   0  0  0  0  0  0  0  0  0  0  0  0
   -3.6481   -5.5209   14.4990 F   0  0  0  0  0  0  0  0  0  0  0  0
   -7.5511   -8.3656   12.5160 N   0  0  0  0  0  0  0  0  0  0  0  0
   -8.2717   -7.2331   13.0113 C   0  0  0  0  0  0  0  0  0  0  0  0
   -8.6884   -7.2310   14.4146 C   0  0  0  0  0  0  0  0  0  0  0  0
   -8.2671   -8.2855   15.2579 C   0  0  0  0  0  0  0  0  0  0  0  0
   -8.6090   -8.3324   16.5827 C   0  0  0  0  0  0  0  0  0  0  0  0
   -8.1979   -9.3502   17.3873 F   0  0  0  0  0  0  0  0  0  0  0  0
   -9.3825   -7.3575   17.1748 C   0  0  0  0  0  0  0  0  0  0  0  0
   -9.7086   -7.4275   18.4834 F   0  0  0  0  0  0  0  0  0  0  0  0
   -9.8063   -6.3208   16.3838 C   0  0  0  0  0  0  0  0  0  0  0  0
   -9.4519   -6.2825   15.0342 C   0  0  0  0  0  0  0  0  0  0  0  0
   -9.9045   -5.2190   14.3428 F   0  0  0  0  0  0  0  0  0  0  0  0
   -8.1805   -9.3033   11.8029 C   0  0  0  0  0  0  0  0  0  0  0  0
   -9.4319   -9.2575   11.5775 O   0  0  0  0  0  0  0  0  0  0  0  0
  1  2  1  6
  2  3  1  0
  3  4  2  3
  4  5  1  0
  5  6  1  0
  4  7  1  0
  7  8  1  0
  8  9  1  0
  9 10  2  0
  9 11  1  0
 11 12  2  0
 12 13  1  0
 13 14  1  0
 14 15  2  0
 15 16  1  0
 16 17  2  0
 17 18  1  0
 19 18  1  1
 18 20  1  0
 20 21  2  0
 21 22  1  0
 22 23  2  0
 23 24  1  0
 12 25  1  0
 26 25  1  6
 26 27  1  0
 27 28  2  0
 28 29  1  0
 29 30  1  0
 29 31  2  0
 31 32  1  0
 31 33  1  0
 33 34  2  0
 34 35  1  0
 25 36  1  0
 36 37  2  0
 36  8  1  0
 23 14  1  0
 34 27  1  0
 21 16  1  0
M  END
$$$$
