_rank19
     RDKit          3D

 37 40  0  0  0  0  0  0  0  0999 V2000
   -8.2478  -10.5069   13.3808 C   0  0  0  0  0  0  0  0  0  0  0  0
   -7.0175  -10.1445   12.6619 N   0  0  0  0  0  0  0  0  0  0  0  0
   -6.1316   -9.3046   13.2806 N   0  0  0  0  0  0  0  0  0  0  0  0
   -5.5891   -8.3087   12.7402 C   0  0  0  0  0  0  0  0  0  0  0  0
   -5.6480   -7.0117   13.3113 N   0  0  0  0  0  0  0  0  0  0  0  0
   -6.3970   -6.7078   14.9994 Br  0  0  0  0  0  0  0  0  0  0  0  0
   -4.9200   -8.4826   11.5038 N   0  0  0  0  0  0  0  0  0  0  0  0
   -4.6991   -9.7379   10.9501 N   0  0  0  0  0  0  0  0  0  0  0  0
   -4.6360  -10.0308    9.6569 C   0  0  0  0  0  0  0  0  0  0  0  0
   -4.8438   -9.1345    8.7970 O   0  0  0  0  0  0  0  0  0  0  0  0
   -4.3549  -11.2858    9.2379 N   0  0  0  0  0  0  0  0  0  0  0  0
   -4.1288  -12.2938   10.0949 C   0  0  0  0  0  0  0  0  0  0  0  0
   -3.8163  -13.5908    9.6066 N   0  0  0  0  0  0  0  0  0  0  0  0
   -3.6429  -13.8891    8.2425 C   0  0  0  0  0  0  0  0  0  0  0  0
   -4.7517  -14.0413    7.4439 C   0  0  0  0  0  0  0  0  0  0  0  0
   -4.6318  -14.3288    6.0921 C   0  0  0  0  0  0  0  0  0  0  0  0
   -5.5315  -14.5264    5.0725 C   0  0  0  0  0  0  0  0  0  0  0  0
   -4.8572  -14.7739    3.9346 N   0  0  0  0  0  0  0  0  0  0  0  0
   -5.4987  -15.0276    2.6398 C   0  0  0  0  0  0  0  0  0  0  0  0
   -3.5733  -14.7368    4.2170 N   0  0  0  0  0  0  0  0  0  0  0  0
   -3.3951  -14.4681    5.5205 C   0  0  0  0  0  0  0  0  0  0  0  0
   -2.2847  -14.3133    6.3333 C   0  0  0  0  0  0  0  0  0  0  0  0
   -2.4056  -14.0281    7.6728 C   0  0  0  0  0  0  0  0  0  0  0  0
   -1.2585  -13.8864    8.4144 F   0  0  0  0  0  0  0  0  0  0  0  0
   -4.1981  -11.9816   11.4224 N   0  0  0  0  0  0  0  0  0  0  0  0
   -3.9015  -13.0230   12.3577 C   0  0  0  0  0  0  0  0  0  0  0  0
   -4.7689  -14.2018   12.3871 C   0  0  0  0  0  0  0  0  0  0  0  0
   -6.1357  -14.0574   12.0531 C   0  0  0  0  0  0  0  0  0  0  0  0
   -6.9946  -15.1235   12.0455 C   0  0  0  0  0  0  0  0  0  0  0  0
   -8.3082  -14.9756   11.7214 F   0  0  0  0  0  0  0  0  0  0  0  0
   -6.5815  -16.3997   12.3616 C   0  0  0  0  0  0  0  0  0  0  0  0
   -7.4487  -17.4348   12.3494 F   0  0  0  0  0  0  0  0  0  0  0  0
   -5.2613  -16.5730   12.6892 C   0  0  0  0  0  0  0  0  0  0  0  0
   -4.3939  -15.4793   12.6938 C   0  0  0  0  0  0  0  0  0  0  0  0
   -3.1148  -15.7514   13.0157 F   0  0  0  0  0  0  0  0  0  0  0  0
   -4.4723  -10.7481   11.8547 C   0  0  0  0  0  0  0  0  0  0  0  0
   -4.5282  -10.4604   13.0929 O   0  0  0  0  0  0  0  0  0  0  0  0
  1  2  1  6
  2  3  1  0
  3  4  2  3
  4  5  1  0
  5  6  1  0
  4  7  1  0
  7  8  1  0
  8  9  1  0
  9 10  2  0
  9 11  1  0
 11 12  2  0
 12 13  1  0
 13 14  1  0
 14 15  2  0
 15 16  1  0
 16 17  2  0
 17 18  1  0
 19 18  1  1
 18 20  1  0
 20 21  2  0
 21 22  1  0
 22 23  2  0
 23 24  1  0
 12 25  1  0
 26 25  1  6
 26 27  1  0
 27 28  2  0
 28 29  1  0
 29 30  1  0
 29 31  2  0
 31 32  1  0
 31 33  1  0
 33 34  2  0
 34 35  1  0
 25 36  1  0
 36 37  2  0
 36  8  1  0
 23 14  1  0
 34 27  1  0
 21 16  1  0
M  END
$$$$
