_rank20
     RDKit          3D

 37 40  0  0  0  0  0  0  0  0999 V2000
   -5.5747   -7.1329   15.5208 C   0  0  0  0  0  0  0  0  0  0  0  0
   -6.6483   -7.9583   14.9793 N   0  0  0  0  0  0  0  0  0  0  0  0
   -7.9254   -7.4195   14.7501 N   0  0  0  0  0  0  0  0  0  0  0  0
   -8.2370   -6.6762   13.7266 C   0  0  0  0  0  0  0  0  0  0  0  0
   -9.1423   -5.5710   13.8483 N   0  0  0  0  0  0  0  0  0  0  0  0
  -10.3505   -5.1116   12.4593 Br  0  0  0  0  0  0  0  0  0  0  0  0
   -7.6717   -6.9700   12.4407 N   0  0  0  0  0  0  0  0  0  0  0  0
   -7.0503   -8.2037   12.1535 N   0  0  0  0  0  0  0  0  0  0  0  0
   -5.7803   -8.2447   11.6639 C   0  0  0  0  0  0  0  0  0  0  0  0
   -5.1371   -7.1824   11.4501 O   0  0  0  0  0  0  0  0  0  0  0  0
   -5.2015   -9.4332   11.3921 N   0  0  0  0  0  0  0  0  0  0  0  0
   -5.8742  -10.5981   11.5591 C   0  0  0  0  0  0  0  0  0  0  0  0
   -5.1731  -11.8324   11.3292 N   0  0  0  0  0  0  0  0  0  0  0  0
   -4.3393  -12.0537   10.1779 C   0  0  0  0  0  0  0  0  0  0  0  0
   -4.6990  -13.0103    9.1975 C   0  0  0  0  0  0  0  0  0  0  0  0
   -3.8346  -13.1984    8.1249 C   0  0  0  0  0  0  0  0  0  0  0  0
   -3.8914  -14.0295    7.0320 C   0  0  0  0  0  0  0  0  0  0  0  0
   -2.7727  -13.8024    6.3041 N   0  0  0  0  0  0  0  0  0  0  0  0
   -2.4552  -14.4221    5.0265 C   0  0  0  0  0  0  0  0  0  0  0  0
   -2.0249  -12.8616    6.8712 N   0  0  0  0  0  0  0  0  0  0  0  0
   -2.6709  -12.4945    7.9934 C   0  0  0  0  0  0  0  0  0  0  0  0
   -2.2762  -11.5519    8.9351 C   0  0  0  0  0  0  0  0  0  0  0  0
   -3.1173  -11.3378   10.0440 C   0  0  0  0  0  0  0  0  0  0  0  0
   -2.7552  -10.4222   10.9781 F   0  0  0  0  0  0  0  0  0  0  0  0
   -7.1786  -10.5762   11.9925 N   0  0  0  0  0  0  0  0  0  0  0  0
   -8.0016  -11.8053   12.0588 C   0  0  0  0  0  0  0  0  0  0  0  0
   -7.5637  -12.6810   13.2086 C   0  0  0  0  0  0  0  0  0  0  0  0
   -6.6570  -12.1906   14.1648 C   0  0  0  0  0  0  0  0  0  0  0  0
   -6.2714  -12.9850   15.2491 C   0  0  0  0  0  0  0  0  0  0  0  0
   -5.4002  -12.4990   16.1682 F   0  0  0  0  0  0  0  0  0  0  0  0
   -6.7855  -14.2768   15.3875 C   0  0  0  0  0  0  0  0  0  0  0  0
   -6.4170  -15.0477   16.4407 F   0  0  0  0  0  0  0  0  0  0  0  0
   -7.6811  -14.7763   14.4393 C   0  0  0  0  0  0  0  0  0  0  0  0
   -8.0703  -13.9861   13.3529 C   0  0  0  0  0  0  0  0  0  0  0  0
   -8.9258  -14.5023   12.4370 F   0  0  0  0  0  0  0  0  0  0  0  0
   -7.7515   -9.3657   12.3022 C   0  0  0  0  0  0  0  0  0  0  0  0
   -8.9363   -9.3183   12.7373 O   0  0  0  0  0  0  0  0  0  0  0  0
  1  2  1  6
  2  3  1  0
  3  4  2  3
  4  5  1  0
  5  6  1  0
  4  7  1  0
  7  8  1  0
  8  9  1  0
  9 10  2  0
  9 11  1  0
 11 12  2  0
 12 13  1  0
 13 14  1  0
 14 15  2  0
 15 16  1  0
 16 17  2  0
 17 18  1  0
 19 18  1  1
 18 20  1  0
 20 21  2  0
 21 22  1  0
 22 23  2  0
 23 24  1  0
 12 25  1  0
 26 25  1  6
 26 27  1  0
 27 28  2  0
 28 29  1  0
 29 30  1  0
 29 31  2  0
 31 32  1  0
 31 33  1  0
 33 34  2  0
 34 35  1  0
 25 36  1  0
 36 37  2  0
 36  8  1  0
 23 14  1  0
 34 27  1  0
 21 16  1  0
M  END
$$$$
