_rank3
     RDKit          3D

 37 40  0  0  0  0  0  0  0  0999 V2000
   -2.8234   -9.8732    8.5105 C   0  0  0  0  0  0  0  0  0  0  0  0
   -4.0717   -9.3825    9.0833 N   0  0  0  0  0  0  0  0  0  0  0  0
   -4.0794   -8.6845   10.3025 N   0  0  0  0  0  0  0  0  0  0  0  0
   -4.0907   -9.2524   11.4749 C   0  0  0  0  0  0  0  0  0  0  0  0
   -3.4087   -8.6750   12.5962 N   0  0  0  0  0  0  0  0  0  0  0  0
   -1.5610   -8.2484   12.5302 Br  0  0  0  0  0  0  0  0  0  0  0  0
   -4.7930  -10.4910   11.6542 N   0  0  0  0  0  0  0  0  0  0  0  0
   -6.1999  -10.5765   11.5931 N   0  0  0  0  0  0  0  0  0  0  0  0
   -6.8172  -11.1032   10.4996 C   0  0  0  0  0  0  0  0  0  0  0  0
   -6.1456  -11.5177    9.5172 O   0  0  0  0  0  0  0  0  0  0  0  0
   -8.1642  -11.1753   10.4561 N   0  0  0  0  0  0  0  0  0  0  0  0
   -8.9276  -10.6954   11.4683 C   0  0  0  0  0  0  0  0  0  0  0  0
  -10.3523  -10.8769   11.3964 N   0  0  0  0  0  0  0  0  0  0  0  0
  -11.0076  -11.4664   10.2595 C   0  0  0  0  0  0  0  0  0  0  0  0
  -11.1401  -12.8722   10.1494 C   0  0  0  0  0  0  0  0  0  0  0  0
  -11.7558  -13.3800    9.0111 C   0  0  0  0  0  0  0  0  0  0  0  0
  -12.0326  -14.6649    8.6100 C   0  0  0  0  0  0  0  0  0  0  0  0
  -12.6441  -14.5799    7.4051 N   0  0  0  0  0  0  0  0  0  0  0  0
  -13.1704  -15.7022    6.6433 C   0  0  0  0  0  0  0  0  0  0  0  0
  -12.7821  -13.3109    7.0357 N   0  0  0  0  0  0  0  0  0  0  0  0
  -12.2306  -12.5723    8.0164 C   0  0  0  0  0  0  0  0  0  0  0  0
  -12.1153  -11.1890    8.0802 C   0  0  0  0  0  0  0  0  0  0  0  0
  -11.4877  -10.6327    9.2115 C   0  0  0  0  0  0  0  0  0  0  0  0
  -11.3628   -9.2841    9.2987 F   0  0  0  0  0  0  0  0  0  0  0  0
   -8.3270  -10.1027   12.5535 N   0  0  0  0  0  0  0  0  0  0  0  0
   -9.1143   -9.4396   13.6179 C   0  0  0  0  0  0  0  0  0  0  0  0
   -9.4124   -8.0060   13.2485 C   0  0  0  0  0  0  0  0  0  0  0  0
   -9.0418   -7.5100   11.9861 C   0  0  0  0  0  0  0  0  0  0  0  0
   -9.3426   -6.1927   11.6257 C   0  0  0  0  0  0  0  0  0  0  0  0
   -8.9849   -5.7271   10.4029 F   0  0  0  0  0  0  0  0  0  0  0  0
  -10.0137   -5.3580   12.5229 C   0  0  0  0  0  0  0  0  0  0  0  0
  -10.3109   -4.0815   12.1743 F   0  0  0  0  0  0  0  0  0  0  0  0
  -10.3798   -5.8385   13.7822 C   0  0  0  0  0  0  0  0  0  0  0  0
  -10.0816   -7.1552   14.1479 C   0  0  0  0  0  0  0  0  0  0  0  0
  -10.4311   -7.5901   15.3831 F   0  0  0  0  0  0  0  0  0  0  0  0
   -6.9541  -10.0641   12.6093 C   0  0  0  0  0  0  0  0  0  0  0  0
   -6.3747   -9.5584   13.6113 O   0  0  0  0  0  0  0  0  0  0  0  0
  1  2  1  6
  2  3  1  0
  3  4  2  3
  4  5  1  0
  5  6  1  0
  4  7  1  0
  7  8  1  0
  8  9  1  0
  9 10  2  0
  9 11  1  0
 11 12  2  0
 12 13  1  0
 13 14  1  0
 14 15  2  0
 15 16  1  0
 16 17  2  0
 17 18  1  0
 19 18  1  1
 18 20  1  0
 20 21  2  0
 21 22  1  0
 22 23  2  0
 23 24  1  0
 12 25  1  0
 26 25  1  6
 26 27  1  0
 27 28  2  0
 28 29  1  0
 29 30  1  0
 29 31  2  0
 31 32  1  0
 31 33  1  0
 33 34  2  0
 34 35  1  0
 25 36  1  0
 36 37  2  0
 36  8  1  0
 23 14  1  0
 34 27  1  0
 21 16  1  0
M  END
$$$$
