_rank11
     RDKit          3D

 37 40  0  0  0  0  0  0  0  0999 V2000
   -5.7939   -8.9254   16.9176 C   0  0  0  0  0  0  0  0  0  0  0  0
   -6.9410   -8.5849   16.0837 N   0  0  0  0  0  0  0  0  0  0  0  0
   -7.3048   -7.2446   15.8716 N   0  0  0  0  0  0  0  0  0  0  0  0
   -6.8232   -6.4934   14.9225 C   0  0  0  0  0  0  0  0  0  0  0  0
   -6.9511   -5.0657   14.9563 N   0  0  0  0  0  0  0  0  0  0  0  0
   -6.0441   -3.9518   13.7166 Br  0  0  0  0  0  0  0  0  0  0  0  0
   -6.1553   -7.1027   13.8080 N   0  0  0  0  0  0  0  0  0  0  0  0
   -6.7041   -8.1961   13.1052 N   0  0  0  0  0  0  0  0  0  0  0  0
   -8.0442   -8.2730   12.8763 C   0  0  0  0  0  0  0  0  0  0  0  0
   -8.8222   -7.3740   13.2937 O   0  0  0  0  0  0  0  0  0  0  0  0
   -8.5532   -9.3270   12.2045 N   0  0  0  0  0  0  0  0  0  0  0  0
   -7.7599  -10.3415   11.7814 C   0  0  0  0  0  0  0  0  0  0  0  0
   -8.3523  -11.3939   11.0007 N   0  0  0  0  0  0  0  0  0  0  0  0
   -9.6605  -11.2869   10.4117 C   0  0  0  0  0  0  0  0  0  0  0  0
  -10.0951  -10.0705    9.8311 C   0  0  0  0  0  0  0  0  0  0  0  0
  -11.3818  -10.0237    9.3067 C   0  0  0  0  0  0  0  0  0  0  0  0
  -12.0882   -9.0194    8.6896 C   0  0  0  0  0  0  0  0  0  0  0  0
  -13.3070   -9.5234    8.3839 N   0  0  0  0  0  0  0  0  0  0  0  0
  -14.3555   -8.8199    7.6608 C   0  0  0  0  0  0  0  0  0  0  0  0
  -13.3984  -10.7947    8.7598 N   0  0  0  0  0  0  0  0  0  0  0  0
  -12.2204  -11.1021    9.3336 C   0  0  0  0  0  0  0  0  0  0  0  0
  -11.8375  -12.3122    9.8995 C   0  0  0  0  0  0  0  0  0  0  0  0
  -10.5455  -12.4000   10.4527 C   0  0  0  0  0  0  0  0  0  0  0  0
  -10.1466  -13.5708   11.0113 F   0  0  0  0  0  0  0  0  0  0  0  0
   -6.4133  -10.3145   12.0568 N   0  0  0  0  0  0  0  0  0  0  0  0
   -5.5273  -11.4581   11.7414 C   0  0  0  0  0  0  0  0  0  0  0  0
   -4.8276  -11.2444   10.4203 C   0  0  0  0  0  0  0  0  0  0  0  0
   -4.9461  -10.0146    9.7490 C   0  0  0  0  0  0  0  0  0  0  0  0
   -4.2756   -9.7990    8.5408 C   0  0  0  0  0  0  0  0  0  0  0  0
   -4.3930   -8.6066    7.9051 F   0  0  0  0  0  0  0  0  0  0  0  0
   -3.4829  -10.8096    7.9907 C   0  0  0  0  0  0  0  0  0  0  0  0
   -2.8278  -10.6016    6.8216 F   0  0  0  0  0  0  0  0  0  0  0  0
   -3.3645  -12.0375    8.6458 C   0  0  0  0  0  0  0  0  0  0  0  0
   -4.0327  -12.2586    9.8544 C   0  0  0  0  0  0  0  0  0  0  0  0
   -3.9159  -13.4658   10.4594 F   0  0  0  0  0  0  0  0  0  0  0  0
   -5.8944   -9.2218   12.7097 C   0  0  0  0  0  0  0  0  0  0  0  0
   -4.6551   -9.1531   12.9438 O   0  0  0  0  0  0  0  0  0  0  0  0
  1  2  1  6
  2  3  1  0
  3  4  2  3
  4  5  1  0
  5  6  1  0
  4  7  1  0
  7  8  1  0
  8  9  1  0
  9 10  2  0
  9 11  1  0
 11 12  2  0
 12 13  1  0
 13 14  1  0
 14 15  2  0
 15 16  1  0
 16 17  2  0
 17 18  1  0
 19 18  1  1
 18 20  1  0
 20 21  2  0
 21 22  1  0
 22 23  2  0
 23 24  1  0
 12 25  1  0
 26 25  1  6
 26 27  1  0
 27 28  2  0
 28 29  1  0
 29 30  1  0
 29 31  2  0
 31 32  1  0
 31 33  1  0
 33 34  2  0
 34 35  1  0
 25 36  1  0
 36 37  2  0
 36  8  1  0
 23 14  1  0
 34 27  1  0
 21 16  1  0
M  END
$$$$
