_rank12
     RDKit          3D

 37 40  0  0  0  0  0  0  0  0999 V2000
   -3.4021  -11.7935   15.0394 C   0  0  0  0  0  0  0  0  0  0  0  0
   -4.2604  -10.8123   15.7194 N   0  0  0  0  0  0  0  0  0  0  0  0
   -4.6500   -9.7015   15.0214 N   0  0  0  0  0  0  0  0  0  0  0  0
   -3.8804   -8.9663   14.3540 C   0  0  0  0  0  0  0  0  0  0  0  0
   -2.5264   -8.7572   14.7205 N   0  0  0  0  0  0  0  0  0  0  0  0
   -1.9872   -8.6809   16.5111 Br  0  0  0  0  0  0  0  0  0  0  0  0
   -4.3913   -8.3014   13.2122 N   0  0  0  0  0  0  0  0  0  0  0  0
   -5.7129   -8.4364   12.8045 N   0  0  0  0  0  0  0  0  0  0  0  0
   -6.1516   -8.4921   11.5529 C   0  0  0  0  0  0  0  0  0  0  0  0
   -5.3441   -8.3595   10.5957 O   0  0  0  0  0  0  0  0  0  0  0  0
   -7.4623   -8.6857   11.2802 N   0  0  0  0  0  0  0  0  0  0  0  0
   -8.3821   -8.8284   12.2472 C   0  0  0  0  0  0  0  0  0  0  0  0
   -9.7444   -9.0510   11.9110 N   0  0  0  0  0  0  0  0  0  0  0  0
  -10.1604   -9.8790   10.8520 C   0  0  0  0  0  0  0  0  0  0  0  0
  -11.3125   -9.5662   10.1700 C   0  0  0  0  0  0  0  0  0  0  0  0
  -11.7595  -10.3477    9.1146 C   0  0  0  0  0  0  0  0  0  0  0  0
  -12.8395  -10.2843    8.2674 C   0  0  0  0  0  0  0  0  0  0  0  0
  -12.7823  -11.3165    7.4061 N   0  0  0  0  0  0  0  0  0  0  0  0
  -13.7738  -11.5617    6.3529 C   0  0  0  0  0  0  0  0  0  0  0  0
  -11.7056  -12.0148    7.6930 N   0  0  0  0  0  0  0  0  0  0  0  0
  -11.0557  -11.4568    8.7272 C   0  0  0  0  0  0  0  0  0  0  0  0
   -9.8969  -11.7634    9.4206 C   0  0  0  0  0  0  0  0  0  0  0  0
   -9.4553  -10.9875   10.4661 C   0  0  0  0  0  0  0  0  0  0  0  0
   -8.2957  -11.3536   11.1043 F   0  0  0  0  0  0  0  0  0  0  0  0
   -7.9200   -8.7676   13.5307 N   0  0  0  0  0  0  0  0  0  0  0  0
   -8.8693   -8.9774   14.5806 C   0  0  0  0  0  0  0  0  0  0  0  0
   -9.0829   -7.9037   15.5523 C   0  0  0  0  0  0  0  0  0  0  0  0
   -8.9916   -8.1982   16.9327 C   0  0  0  0  0  0  0  0  0  0  0  0
   -9.1643   -7.2352   17.8903 C   0  0  0  0  0  0  0  0  0  0  0  0
   -9.0731   -7.5273   19.2165 F   0  0  0  0  0  0  0  0  0  0  0  0
   -9.4369   -5.9230   17.5693 C   0  0  0  0  0  0  0  0  0  0  0  0
   -9.6058   -4.9917   18.5325 F   0  0  0  0  0  0  0  0  0  0  0  0
   -9.5310   -5.6050   16.2388 C   0  0  0  0  0  0  0  0  0  0  0  0
   -9.3530   -6.5944   15.2704 C   0  0  0  0  0  0  0  0  0  0  0  0
   -9.4515   -6.1828   13.9918 F   0  0  0  0  0  0  0  0  0  0  0  0
   -6.6296   -8.5792   13.8191 C   0  0  0  0  0  0  0  0  0  0  0  0
   -6.2026   -8.5309   15.0168 O   0  0  0  0  0  0  0  0  0  0  0  0
  1  2  1  6
  2  3  1  0
  3  4  2  3
  4  5  1  0
  5  6  1  0
  4  7  1  0
  7  8  1  0
  8  9  1  0
  9 10  2  0
  9 11  1  0
 11 12  2  0
 12 13  1  0
 13 14  1  0
 14 15  2  0
 15 16  1  0
 16 17  2  0
 17 18  1  0
 19 18  1  1
 18 20  1  0
 20 21  2  0
 21 22  1  0
 22 23  2  0
 23 24  1  0
 12 25  1  0
 26 25  1  6
 26 27  1  0
 27 28  2  0
 28 29  1  0
 29 30  1  0
 29 31  2  0
 31 32  1  0
 31 33  1  0
 33 34  2  0
 34 35  1  0
 25 36  1  0
 36 37  2  0
 36  8  1  0
 23 14  1  0
 34 27  1  0
 21 16  1  0
M  END
$$$$
