_rank19
     RDKit          3D

 37 40  0  0  0  0  0  0  0  0999 V2000
   -3.2614  -11.0430   17.7363 C   0  0  0  0  0  0  0  0  0  0  0  0
   -4.2999  -10.8886   16.7239 N   0  0  0  0  0  0  0  0  0  0  0  0
   -4.6463   -9.6177   16.2354 N   0  0  0  0  0  0  0  0  0  0  0  0
   -3.9123   -8.9197   15.4162 C   0  0  0  0  0  0  0  0  0  0  0  0
   -3.1220   -7.8135   15.8718 N   0  0  0  0  0  0  0  0  0  0  0  0
   -1.4225   -8.0644   16.6774 Br  0  0  0  0  0  0  0  0  0  0  0  0
   -3.8962   -9.2541   14.0207 N   0  0  0  0  0  0  0  0  0  0  0  0
   -5.0795   -9.4581   13.2798 N   0  0  0  0  0  0  0  0  0  0  0  0
   -5.4363  -10.7067   12.8702 C   0  0  0  0  0  0  0  0  0  0  0  0
   -4.7139  -11.7040   13.1375 O   0  0  0  0  0  0  0  0  0  0  0  0
   -6.5702  -10.8841   12.1601 N   0  0  0  0  0  0  0  0  0  0  0  0
   -7.3509   -9.8337   11.8070 C   0  0  0  0  0  0  0  0  0  0  0  0
   -8.5868  -10.0994   11.1214 N   0  0  0  0  0  0  0  0  0  0  0  0
   -9.0881  -11.4302   10.9039 C   0  0  0  0  0  0  0  0  0  0  0  0
   -8.4331  -12.3130   10.0110 C   0  0  0  0  0  0  0  0  0  0  0  0
   -8.9859  -13.5745    9.8214 C   0  0  0  0  0  0  0  0  0  0  0  0
   -8.6031  -14.6394    9.0419 C   0  0  0  0  0  0  0  0  0  0  0  0
   -9.5148  -15.6209    9.2380 N   0  0  0  0  0  0  0  0  0  0  0  0
   -9.4603  -16.9536    8.6567 C   0  0  0  0  0  0  0  0  0  0  0  0
  -10.4396  -15.2367   10.1115 N   0  0  0  0  0  0  0  0  0  0  0  0
  -10.1216  -13.9777   10.4655 C   0  0  0  0  0  0  0  0  0  0  0  0
  -10.7998  -13.1417   11.3442 C   0  0  0  0  0  0  0  0  0  0  0  0
  -10.2802  -11.8503   11.5568 C   0  0  0  0  0  0  0  0  0  0  0  0
  -10.9234  -11.0141   12.4107 F   0  0  0  0  0  0  0  0  0  0  0  0
   -6.9764   -8.5579   12.1561 N   0  0  0  0  0  0  0  0  0  0  0  0
   -7.7158   -7.3673   11.6785 C   0  0  0  0  0  0  0  0  0  0  0  0
   -8.8949   -7.0745   12.5755 C   0  0  0  0  0  0  0  0  0  0  0  0
   -9.1324   -7.8678   13.7118 C   0  0  0  0  0  0  0  0  0  0  0  0
  -10.2040   -7.5830   14.5640 C   0  0  0  0  0  0  0  0  0  0  0  0
  -10.4199   -8.3521   15.6602 F   0  0  0  0  0  0  0  0  0  0  0  0
  -11.0497   -6.5054   14.2882 C   0  0  0  0  0  0  0  0  0  0  0  0
  -12.0869   -6.2241   15.1154 F   0  0  0  0  0  0  0  0  0  0  0  0
  -10.8269   -5.7156   13.1580 C   0  0  0  0  0  0  0  0  0  0  0  0
   -9.7566   -5.9957   12.3024 C   0  0  0  0  0  0  0  0  0  0  0  0
   -9.5746   -5.2251   11.2024 F   0  0  0  0  0  0  0  0  0  0  0  0
   -5.8399   -8.3862   12.9100 C   0  0  0  0  0  0  0  0  0  0  0  0
   -5.4914   -7.2286   13.2762 O   0  0  0  0  0  0  0  0  0  0  0  0
  1  2  1  6
  2  3  1  0
  3  4  2  3
  4  5  1  0
  5  6  1  0
  4  7  1  0
  7  8  1  0
  8  9  1  0
  9 10  2  0
  9 11  1  0
 11 12  2  0
 12 13  1  0
 13 14  1  0
 14 15  2  0
 15 16  1  0
 16 17  2  0
 17 18  1  0
 19 18  1  1
 18 20  1  0
 20 21  2  0
 21 22  1  0
 22 23  2  0
 23 24  1  0
 12 25  1  0
 26 25  1  6
 26 27  1  0
 27 28  2  0
 28 29  1  0
 29 30  1  0
 29 31  2  0
 31 32  1  0
 31 33  1  0
 33 34  2  0
 34 35  1  0
 25 36  1  0
 36 37  2  0
 36  8  1  0
 23 14  1  0
 34 27  1  0
 21 16  1  0
M  END
$$$$
