_rank2
     RDKit          3D

 37 40  0  0  0  0  0  0  0  0999 V2000
   -7.5988  -11.6463    9.8964 C   0  0  0  0  0  0  0  0  0  0  0  0
   -6.4333  -11.1117    9.1769 N   0  0  0  0  0  0  0  0  0  0  0  0
   -5.3138  -10.8021    9.9007 N   0  0  0  0  0  0  0  0  0  0  0  0
   -4.5741   -9.8090    9.6896 C   0  0  0  0  0  0  0  0  0  0  0  0
   -4.6260   -9.0696    8.4804 N   0  0  0  0  0  0  0  0  0  0  0  0
   -3.0971   -8.2945    7.7290 Br  0  0  0  0  0  0  0  0  0  0  0  0
   -3.6365   -9.4325   10.6826 N   0  0  0  0  0  0  0  0  0  0  0  0
   -4.0030   -9.2189   12.0059 N   0  0  0  0  0  0  0  0  0  0  0  0
   -3.4720   -9.7981   13.0759 C   0  0  0  0  0  0  0  0  0  0  0  0
   -2.5817  -10.6782   12.9395 O   0  0  0  0  0  0  0  0  0  0  0  0
   -3.8742   -9.4631   14.3232 N   0  0  0  0  0  0  0  0  0  0  0  0
   -4.8222   -8.5396   14.5469 C   0  0  0  0  0  0  0  0  0  0  0  0
   -5.1961   -8.2063   15.8764 N   0  0  0  0  0  0  0  0  0  0  0  0
   -5.1070   -9.1013   16.9586 C   0  0  0  0  0  0  0  0  0  0  0  0
   -6.0092  -10.1349   17.0490 C   0  0  0  0  0  0  0  0  0  0  0  0
   -5.9576  -11.0466   18.0932 C   0  0  0  0  0  0  0  0  0  0  0  0
   -6.6989  -12.1516   18.4361 C   0  0  0  0  0  0  0  0  0  0  0  0
   -6.2004  -12.6798   19.5688 N   0  0  0  0  0  0  0  0  0  0  0  0
   -6.7429  -13.8749   20.2245 C   0  0  0  0  0  0  0  0  0  0  0  0
   -5.1784  -11.9388   19.9371 N   0  0  0  0  0  0  0  0  0  0  0  0
   -4.9981  -10.9345   19.0640 C   0  0  0  0  0  0  0  0  0  0  0  0
   -4.0944   -9.8901   18.9641 C   0  0  0  0  0  0  0  0  0  0  0  0
   -4.1470   -8.9875   17.9283 C   0  0  0  0  0  0  0  0  0  0  0  0
   -3.2151   -7.9794   17.8952 F   0  0  0  0  0  0  0  0  0  0  0  0
   -5.3626   -7.9519   13.4392 N   0  0  0  0  0  0  0  0  0  0  0  0
   -6.3318   -6.9206   13.6504 C   0  0  0  0  0  0  0  0  0  0  0  0
   -7.7439   -7.2343   13.4266 C   0  0  0  0  0  0  0  0  0  0  0  0
   -8.1024   -8.5441   13.0308 C   0  0  0  0  0  0  0  0  0  0  0  0
   -9.4063   -8.9049   12.8221 C   0  0  0  0  0  0  0  0  0  0  0  0
   -9.7423  -10.1681   12.4427 F   0  0  0  0  0  0  0  0  0  0  0  0
  -10.4475   -8.0167   12.9844 C   0  0  0  0  0  0  0  0  0  0  0  0
  -11.7257   -8.3961   12.7699 F   0  0  0  0  0  0  0  0  0  0  0  0
  -10.1329   -6.7386   13.3687 C   0  0  0  0  0  0  0  0  0  0  0  0
   -8.8001   -6.3811   13.5790 C   0  0  0  0  0  0  0  0  0  0  0  0
   -8.5924   -5.1081   13.9666 F   0  0  0  0  0  0  0  0  0  0  0  0
   -4.9769   -8.2682   12.2003 C   0  0  0  0  0  0  0  0  0  0  0  0
   -5.4782   -7.7122   11.1714 O   0  0  0  0  0  0  0  0  0  0  0  0
  1  2  1  6
  2  3  1  0
  3  4  2  3
  4  5  1  0
  5  6  1  0
  4  7  1  0
  7  8  1  0
  8  9  1  0
  9 10  2  0
  9 11  1  0
 11 12  2  0
 12 13  1  0
 13 14  1  0
 14 15  2  0
 15 16  1  0
 16 17  2  0
 17 18  1  0
 19 18  1  1
 18 20  1  0
 20 21  2  0
 21 22  1  0
 22 23  2  0
 23 24  1  0
 12 25  1  0
 26 25  1  6
 26 27  1  0
 27 28  2  0
 28 29  1  0
 29 30  1  0
 29 31  2  0
 31 32  1  0
 31 33  1  0
 33 34  2  0
 34 35  1  0
 25 36  1  0
 36 37  2  0
 36  8  1  0
 23 14  1  0
 34 27  1  0
 21 16  1  0
M  END
$$$$
