_rank17
     RDKit          3D

 37 40  0  0  0  0  0  0  0  0999 V2000
   -3.1600  -11.0787   15.7076 C   0  0  0  0  0  0  0  0  0  0  0  0
   -2.9749  -10.0105   14.7144 N   0  0  0  0  0  0  0  0  0  0  0  0
   -4.0284   -9.6971   13.8990 N   0  0  0  0  0  0  0  0  0  0  0  0
   -3.9881   -8.8595   12.9636 C   0  0  0  0  0  0  0  0  0  0  0  0
   -3.2773   -7.6370   13.0720 N   0  0  0  0  0  0  0  0  0  0  0  0
   -4.0914   -5.9864   12.7318 Br  0  0  0  0  0  0  0  0  0  0  0  0
   -4.7008   -9.1337   11.7704 N   0  0  0  0  0  0  0  0  0  0  0  0
   -6.0437   -9.4909   11.7739 N   0  0  0  0  0  0  0  0  0  0  0  0
   -6.7515   -9.9128   10.7331 C   0  0  0  0  0  0  0  0  0  0  0  0
   -6.2237   -9.9629    9.5909 O   0  0  0  0  0  0  0  0  0  0  0  0
   -8.0430  -10.2899   10.8735 N   0  0  0  0  0  0  0  0  0  0  0  0
   -8.6746  -10.2572   12.0573 C   0  0  0  0  0  0  0  0  0  0  0  0
  -10.0260  -10.6836   12.1587 N   0  0  0  0  0  0  0  0  0  0  0  0
  -10.7518  -11.2347   11.0865 C   0  0  0  0  0  0  0  0  0  0  0  0
  -10.3687  -10.9437    9.7985 C   0  0  0  0  0  0  0  0  0  0  0  0
  -11.0483  -11.4684    8.7090 C   0  0  0  0  0  0  0  0  0  0  0  0
  -10.8993  -11.3629    7.3470 C   0  0  0  0  0  0  0  0  0  0  0  0
  -11.8505  -12.0989    6.7436 N   0  0  0  0  0  0  0  0  0  0  0  0
  -11.9912  -12.2233    5.2885 C   0  0  0  0  0  0  0  0  0  0  0  0
  -12.5815  -12.6537    7.6855 N   0  0  0  0  0  0  0  0  0  0  0  0
  -12.1244  -12.2946    8.8960 C   0  0  0  0  0  0  0  0  0  0  0  0
  -12.5025  -12.5813   10.1970 C   0  0  0  0  0  0  0  0  0  0  0  0
  -11.8276  -12.0604   11.2756 C   0  0  0  0  0  0  0  0  0  0  0  0
  -12.2599  -12.3919   12.5362 F   0  0  0  0  0  0  0  0  0  0  0  0
   -7.9376   -9.8199   13.1205 N   0  0  0  0  0  0  0  0  0  0  0  0
   -8.5675   -9.8326   14.4052 C   0  0  0  0  0  0  0  0  0  0  0  0
   -8.9707   -8.5558   14.9967 C   0  0  0  0  0  0  0  0  0  0  0  0
   -9.6763   -7.6226   14.2018 C   0  0  0  0  0  0  0  0  0  0  0  0
  -10.0956   -6.4188   14.7008 C   0  0  0  0  0  0  0  0  0  0  0  0
  -10.7753   -5.5273   13.9289 F   0  0  0  0  0  0  0  0  0  0  0  0
   -9.8569   -6.0429   16.0050 C   0  0  0  0  0  0  0  0  0  0  0  0
  -10.2785   -4.8484   16.4732 F   0  0  0  0  0  0  0  0  0  0  0  0
   -9.1755   -6.9264   16.8021 C   0  0  0  0  0  0  0  0  0  0  0  0
   -8.7526   -8.1514   16.2834 C   0  0  0  0  0  0  0  0  0  0  0  0
   -8.1031   -8.9564   17.1460 F   0  0  0  0  0  0  0  0  0  0  0  0
   -6.6611   -9.4456   13.0015 C   0  0  0  0  0  0  0  0  0  0  0  0
   -5.9762   -9.0459   13.9966 O   0  0  0  0  0  0  0  0  0  0  0  0
  1  2  1  6
  2  3  1  0
  3  4  2  3
  4  5  1  0
  5  6  1  0
  4  7  1  0
  7  8  1  0
  8  9  1  0
  9 10  2  0
  9 11  1  0
 11 12  2  0
 12 13  1  0
 13 14  1  0
 14 15  2  0
 15 16  1  0
 16 17  2  0
 17 18  1  0
 19 18  1  1
 18 20  1  0
 20 21  2  0
 21 22  1  0
 22 23  2  0
 23 24  1  0
 12 25  1  0
 26 25  1  6
 26 27  1  0
 27 28  2  0
 28 29  1  0
 29 30  1  0
 29 31  2  0
 31 32  1  0
 31 33  1  0
 33 34  2  0
 34 35  1  0
 25 36  1  0
 36 37  2  0
 36  8  1  0
 23 14  1  0
 34 27  1  0
 21 16  1  0
M  END
$$$$
