_rank6
     RDKit          3D

 37 40  0  0  0  0  0  0  0  0999 V2000
   -8.5368   -7.2763    8.8486 C   0  0  0  0  0  0  0  0  0  0  0  0
   -7.9177   -8.6013    8.6974 N   0  0  0  0  0  0  0  0  0  0  0  0
   -6.6242   -8.7611    9.1151 N   0  0  0  0  0  0  0  0  0  0  0  0
   -5.9658   -9.8269    9.0212 C   0  0  0  0  0  0  0  0  0  0  0  0
   -6.1264  -10.7227    7.9334 N   0  0  0  0  0  0  0  0  0  0  0  0
   -4.9024  -10.7900    6.5191 Br  0  0  0  0  0  0  0  0  0  0  0  0
   -5.0523  -10.1581   10.0520 N   0  0  0  0  0  0  0  0  0  0  0  0
   -5.2278   -9.7334   11.3634 N   0  0  0  0  0  0  0  0  0  0  0  0
   -4.3914   -9.9290   12.3756 C   0  0  0  0  0  0  0  0  0  0  0  0
   -3.3442  -10.6075   12.2056 O   0  0  0  0  0  0  0  0  0  0  0  0
   -4.6446   -9.4136   13.6004 N   0  0  0  0  0  0  0  0  0  0  0  0
   -5.7427   -8.6864   13.8590 C   0  0  0  0  0  0  0  0  0  0  0  0
   -5.9544   -8.1480   15.1566 N   0  0  0  0  0  0  0  0  0  0  0  0
   -6.1694   -8.9367   16.3019 C   0  0  0  0  0  0  0  0  0  0  0  0
   -6.4020   -8.3177   17.5074 C   0  0  0  0  0  0  0  0  0  0  0  0
   -6.6262   -9.0521   18.6627 C   0  0  0  0  0  0  0  0  0  0  0  0
   -6.8834   -8.7219   19.9715 C   0  0  0  0  0  0  0  0  0  0  0  0
   -7.0263   -9.8515   20.6887 N   0  0  0  0  0  0  0  0  0  0  0  0
   -7.3147   -9.8787   22.1270 C   0  0  0  0  0  0  0  0  0  0  0  0
   -6.8652  -10.8665   19.8684 N   0  0  0  0  0  0  0  0  0  0  0  0
   -6.6204  -10.4211   18.6255 C   0  0  0  0  0  0  0  0  0  0  0  0
   -6.3849  -11.0349   17.4067 C   0  0  0  0  0  0  0  0  0  0  0  0
   -6.1631  -10.3053   16.2627 C   0  0  0  0  0  0  0  0  0  0  0  0
   -5.9392  -10.9847   15.0904 F   0  0  0  0  0  0  0  0  0  0  0  0
   -6.5967   -8.4932   12.8112 N   0  0  0  0  0  0  0  0  0  0  0  0
   -7.7444   -7.6707   13.0432 C   0  0  0  0  0  0  0  0  0  0  0  0
   -9.0401   -8.3220   13.2425 C   0  0  0  0  0  0  0  0  0  0  0  0
   -9.1177   -9.7327   13.1748 C   0  0  0  0  0  0  0  0  0  0  0  0
  -10.2960  -10.4021   13.3688 C   0  0  0  0  0  0  0  0  0  0  0  0
  -10.3611  -11.7600   13.3033 F   0  0  0  0  0  0  0  0  0  0  0  0
  -11.4761   -9.7446   13.6413 C   0  0  0  0  0  0  0  0  0  0  0  0
  -12.6264  -10.4274   13.8261 F   0  0  0  0  0  0  0  0  0  0  0  0
  -11.4340   -8.3760   13.7144 C   0  0  0  0  0  0  0  0  0  0  0  0
  -10.2273   -7.7032   13.5152 C   0  0  0  0  0  0  0  0  0  0  0  0
  -10.2840   -6.3616   13.6196 F   0  0  0  0  0  0  0  0  0  0  0  0
   -6.3624   -8.9924   11.5948 C   0  0  0  0  0  0  0  0  0  0  0  0
   -7.1575   -8.8031   10.6196 O   0  0  0  0  0  0  0  0  0  0  0  0
  1  2  1  6
  2  3  1  0
  3  4  2  3
  4  5  1  0
  5  6  1  0
  4  7  1  0
  7  8  1  0
  8  9  1  0
  9 10  2  0
  9 11  1  0
 11 12  2  0
 12 13  1  0
 13 14  1  0
 14 15  2  0
 15 16  1  0
 16 17  2  0
 17 18  1  0
 19 18  1  1
 18 20  1  0
 20 21  2  0
 21 22  1  0
 22 23  2  0
 23 24  1  0
 12 25  1  0
 26 25  1  6
 26 27  1  0
 27 28  2  0
 28 29  1  0
 29 30  1  0
 29 31  2  0
 31 32  1  0
 31 33  1  0
 33 34  2  0
 34 35  1  0
 25 36  1  0
 36 37  2  0
 36  8  1  0
 23 14  1  0
 34 27  1  0
 21 16  1  0
M  END
$$$$
