_rank1
     RDKit          3D

 37 40  0  0  0  0  0  0  0  0999 V2000
   -2.5513  -12.3745    8.5033 C   0  0  0  0  0  0  0  0  0  0  0  0
   -3.6734  -12.2429    9.4255 N   0  0  0  0  0  0  0  0  0  0  0  0
   -4.0485  -10.9860    9.9288 N   0  0  0  0  0  0  0  0  0  0  0  0
   -3.2433   -9.9677   10.0385 C   0  0  0  0  0  0  0  0  0  0  0  0
   -2.0446   -9.8702    9.2579 N   0  0  0  0  0  0  0  0  0  0  0  0
   -1.2017   -8.2030    8.9255 Br  0  0  0  0  0  0  0  0  0  0  0  0
   -3.5520   -8.9186   10.9677 N   0  0  0  0  0  0  0  0  0  0  0  0
   -4.3788   -9.1255   12.0921 N   0  0  0  0  0  0  0  0  0  0  0  0
   -3.8472   -9.1827   13.3444 C   0  0  0  0  0  0  0  0  0  0  0  0
   -2.6061   -9.0599   13.5242 O   0  0  0  0  0  0  0  0  0  0  0  0
   -4.6520   -9.3838   14.4090 N   0  0  0  0  0  0  0  0  0  0  0  0
   -5.9859   -9.5713   14.2574 C   0  0  0  0  0  0  0  0  0  0  0  0
   -6.7977   -9.6988   15.4374 N   0  0  0  0  0  0  0  0  0  0  0  0
   -6.2421   -9.9015   16.7488 C   0  0  0  0  0  0  0  0  0  0  0  0
   -4.9304  -10.4115   16.9077 C   0  0  0  0  0  0  0  0  0  0  0  0
   -4.4638  -10.6136   18.2017 C   0  0  0  0  0  0  0  0  0  0  0  0
   -3.2668  -11.0844   18.6853 C   0  0  0  0  0  0  0  0  0  0  0  0
   -3.3565  -11.0787   20.0362 N   0  0  0  0  0  0  0  0  0  0  0  0
   -2.2880  -11.4387   20.9558 C   0  0  0  0  0  0  0  0  0  0  0  0
   -4.5382  -10.6137   20.4276 N   0  0  0  0  0  0  0  0  0  0  0  0
   -5.2230  -10.3346   19.3030 C   0  0  0  0  0  0  0  0  0  0  0  0
   -6.5169   -9.8399   19.1929 C   0  0  0  0  0  0  0  0  0  0  0  0
   -7.0333   -9.6307   17.8996 C   0  0  0  0  0  0  0  0  0  0  0  0
   -8.2944   -9.1477   17.7644 F   0  0  0  0  0  0  0  0  0  0  0  0
   -6.5343   -9.5801   12.9968 N   0  0  0  0  0  0  0  0  0  0  0  0
   -7.9572   -9.9177   12.7652 C   0  0  0  0  0  0  0  0  0  0  0  0
   -8.8111   -8.6722   12.7751 C   0  0  0  0  0  0  0  0  0  0  0  0
   -8.2594   -7.4405   13.1695 C   0  0  0  0  0  0  0  0  0  0  0  0
   -9.0358   -6.2775   13.1512 C   0  0  0  0  0  0  0  0  0  0  0  0
   -8.4911   -5.0941   13.5286 F   0  0  0  0  0  0  0  0  0  0  0  0
  -10.3705   -6.3340   12.7414 C   0  0  0  0  0  0  0  0  0  0  0  0
  -11.1244   -5.2069   12.7182 F   0  0  0  0  0  0  0  0  0  0  0  0
  -10.9303   -7.5537   12.3547 C   0  0  0  0  0  0  0  0  0  0  0  0
  -10.1584   -8.7199   12.3710 C   0  0  0  0  0  0  0  0  0  0  0  0
  -10.7319   -9.8935   12.0092 F   0  0  0  0  0  0  0  0  0  0  0  0
   -5.7161   -9.3391   11.9188 C   0  0  0  0  0  0  0  0  0  0  0  0
   -6.1989   -9.3050   10.7521 O   0  0  0  0  0  0  0  0  0  0  0  0
  1  2  1  6
  2  3  1  0
  3  4  2  3
  4  5  1  0
  5  6  1  0
  4  7  1  0
  7  8  1  0
  8  9  1  0
  9 10  2  0
  9 11  1  0
 11 12  2  0
 12 13  1  0
 13 14  1  0
 14 15  2  0
 15 16  1  0
 16 17  2  0
 17 18  1  0
 19 18  1  1
 18 20  1  0
 20 21  2  0
 21 22  1  0
 22 23  2  0
 23 24  1  0
 12 25  1  0
 26 25  1  6
 26 27  1  0
 27 28  2  0
 28 29  1  0
 29 30  1  0
 29 31  2  0
 31 32  1  0
 31 33  1  0
 33 34  2  0
 34 35  1  0
 25 36  1  0
 36 37  2  0
 36  8  1  0
 23 14  1  0
 34 27  1  0
 21 16  1  0
M  END
$$$$
