_rank15
     RDKit          3D

 37 40  0  0  0  0  0  0  0  0999 V2000
   -5.7588   -5.8195   13.6947 C   0  0  0  0  0  0  0  0  0  0  0  0
   -4.7439   -6.6164   12.9898 N   0  0  0  0  0  0  0  0  0  0  0  0
   -5.0842   -7.1800   11.7900 N   0  0  0  0  0  0  0  0  0  0  0  0
   -4.3236   -7.8947   11.0909 C   0  0  0  0  0  0  0  0  0  0  0  0
   -3.0699   -7.4293   10.6186 N   0  0  0  0  0  0  0  0  0  0  0  0
   -2.8997   -6.5334    8.9842 Br  0  0  0  0  0  0  0  0  0  0  0  0
   -4.7460   -9.2003   10.7392 N   0  0  0  0  0  0  0  0  0  0  0  0
   -5.6913   -9.8990   11.4805 N   0  0  0  0  0  0  0  0  0  0  0  0
   -6.8782  -10.3150   11.0556 C   0  0  0  0  0  0  0  0  0  0  0  0
   -7.2659  -10.0308    9.8916 O   0  0  0  0  0  0  0  0  0  0  0  0
   -7.6912  -11.0416   11.8561 N   0  0  0  0  0  0  0  0  0  0  0  0
   -7.3494  -11.3771   13.1099 C   0  0  0  0  0  0  0  0  0  0  0  0
   -8.2284  -12.1600   13.9054 N   0  0  0  0  0  0  0  0  0  0  0  0
   -9.5697  -12.4144   13.5647 C   0  0  0  0  0  0  0  0  0  0  0  0
  -10.4706  -12.7049   14.5619 C   0  0  0  0  0  0  0  0  0  0  0  0
  -11.8047  -12.9560   14.2766 C   0  0  0  0  0  0  0  0  0  0  0  0
  -12.9056  -13.2605   15.0404 C   0  0  0  0  0  0  0  0  0  0  0  0
  -13.9739  -13.3995   14.2340 N   0  0  0  0  0  0  0  0  0  0  0  0
  -15.3240  -13.7210   14.7096 C   0  0  0  0  0  0  0  0  0  0  0  0
  -13.5701  -13.1925   12.9997 N   0  0  0  0  0  0  0  0  0  0  0  0
  -12.2555  -12.9190   12.9839 C   0  0  0  0  0  0  0  0  0  0  0  0
  -11.3404  -12.6257   11.9869 C   0  0  0  0  0  0  0  0  0  0  0  0
  -10.0185  -12.3770   12.2717 C   0  0  0  0  0  0  0  0  0  0  0  0
   -9.1707  -12.0907   11.2300 F   0  0  0  0  0  0  0  0  0  0  0  0
   -6.1274  -10.9424   13.5370 N   0  0  0  0  0  0  0  0  0  0  0  0
   -5.7119  -11.3373   14.8480 C   0  0  0  0  0  0  0  0  0  0  0  0
   -6.5201  -10.9141   15.9927 C   0  0  0  0  0  0  0  0  0  0  0  0
   -6.1439   -9.7530   16.7076 C   0  0  0  0  0  0  0  0  0  0  0  0
   -6.8672   -9.2959   17.7762 C   0  0  0  0  0  0  0  0  0  0  0  0
   -6.4986   -8.1767   18.4575 F   0  0  0  0  0  0  0  0  0  0  0  0
   -8.0035   -9.9369   18.2201 C   0  0  0  0  0  0  0  0  0  0  0  0
   -8.6986   -9.4676   19.2786 F   0  0  0  0  0  0  0  0  0  0  0  0
   -8.3953  -11.0656   17.5473 C   0  0  0  0  0  0  0  0  0  0  0  0
   -7.6508  -11.5232   16.4589 C   0  0  0  0  0  0  0  0  0  0  0  0
   -8.1217  -12.6311   15.8552 F   0  0  0  0  0  0  0  0  0  0  0  0
   -5.3105  -10.2260   12.7604 C   0  0  0  0  0  0  0  0  0  0  0  0
   -4.1694   -9.8297   13.1604 O   0  0  0  0  0  0  0  0  0  0  0  0
  1  2  1  6
  2  3  1  0
  3  4  2  3
  4  5  1  0
  5  6  1  0
  4  7  1  0
  7  8  1  0
  8  9  1  0
  9 10  2  0
  9 11  1  0
 11 12  2  0
 12 13  1  0
 13 14  1  0
 14 15  2  0
 15 16  1  0
 16 17  2  0
 17 18  1  0
 19 18  1  1
 18 20  1  0
 20 21  2  0
 21 22  1  0
 22 23  2  0
 23 24  1  0
 12 25  1  0
 26 25  1  6
 26 27  1  0
 27 28  2  0
 28 29  1  0
 29 30  1  0
 29 31  2  0
 31 32  1  0
 31 33  1  0
 33 34  2  0
 34 35  1  0
 25 36  1  0
 36 37  2  0
 36  8  1  0
 23 14  1  0
 34 27  1  0
 21 16  1  0
M  END
$$$$
