_rank7
     RDKit          3D

 37 40  0  0  0  0  0  0  0  0999 V2000
   -2.5032  -11.0054    6.7955 C   0  0  0  0  0  0  0  0  0  0  0  0
   -2.9715  -10.7302    8.1618 N   0  0  0  0  0  0  0  0  0  0  0  0
   -2.9245  -11.7462    9.0775 N   0  0  0  0  0  0  0  0  0  0  0  0
   -3.2222  -11.6320   10.2926 C   0  0  0  0  0  0  0  0  0  0  0  0
   -3.5831  -12.7469   11.0917 N   0  0  0  0  0  0  0  0  0  0  0  0
   -2.3770  -14.1291   11.4628 Br  0  0  0  0  0  0  0  0  0  0  0  0
   -3.2245  -10.3415   10.8768 N   0  0  0  0  0  0  0  0  0  0  0  0
   -4.3906   -9.7312   11.3226 N   0  0  0  0  0  0  0  0  0  0  0  0
   -5.3632   -9.2380   10.5656 C   0  0  0  0  0  0  0  0  0  0  0  0
   -5.2504   -9.2447    9.3113 O   0  0  0  0  0  0  0  0  0  0  0  0
   -6.4832   -8.7184   11.1182 N   0  0  0  0  0  0  0  0  0  0  0  0
   -6.6714   -8.6706   12.4463 C   0  0  0  0  0  0  0  0  0  0  0  0
   -7.8743   -8.1345   12.9792 N   0  0  0  0  0  0  0  0  0  0  0  0
   -9.1387   -8.3216   12.3907 C   0  0  0  0  0  0  0  0  0  0  0  0
   -9.8369   -7.2260   11.9408 C   0  0  0  0  0  0  0  0  0  0  0  0
  -11.0837   -7.3602   11.3476 C   0  0  0  0  0  0  0  0  0  0  0  0
  -11.9893   -6.4756   10.8133 C   0  0  0  0  0  0  0  0  0  0  0  0
  -13.0554   -7.1599   10.3598 N   0  0  0  0  0  0  0  0  0  0  0  0
  -14.2188   -6.5358    9.7198 C   0  0  0  0  0  0  0  0  0  0  0  0
  -12.8396   -8.4353   10.5967 N   0  0  0  0  0  0  0  0  0  0  0  0
  -11.6493   -8.5983   11.1967 C   0  0  0  0  0  0  0  0  0  0  0  0
  -10.9383   -9.6954   11.6532 C   0  0  0  0  0  0  0  0  0  0  0  0
   -9.7027   -9.5603   12.2407 C   0  0  0  0  0  0  0  0  0  0  0  0
   -9.0567  -10.6949   12.6667 F   0  0  0  0  0  0  0  0  0  0  0  0
   -5.6639   -9.1789   13.2153 N   0  0  0  0  0  0  0  0  0  0  0  0
   -5.8645   -9.1962   14.6319 C   0  0  0  0  0  0  0  0  0  0  0  0
   -4.7768   -9.6790   15.4843 C   0  0  0  0  0  0  0  0  0  0  0  0
   -3.7856   -8.7668   15.9158 C   0  0  0  0  0  0  0  0  0  0  0  0
   -2.7527   -9.1522   16.7274 C   0  0  0  0  0  0  0  0  0  0  0  0
   -1.8040   -8.2673   17.1390 F   0  0  0  0  0  0  0  0  0  0  0  0
   -2.6152  -10.4490   17.1729 C   0  0  0  0  0  0  0  0  0  0  0  0
   -1.5857  -10.8052   17.9710 F   0  0  0  0  0  0  0  0  0  0  0  0
   -3.5610  -11.3577   16.7727 C   0  0  0  0  0  0  0  0  0  0  0  0
   -4.6103  -10.9543   15.9452 C   0  0  0  0  0  0  0  0  0  0  0  0
   -5.4955  -11.9147   15.6166 F   0  0  0  0  0  0  0  0  0  0  0  0
   -4.5521   -9.6977   12.6875 C   0  0  0  0  0  0  0  0  0  0  0  0
   -3.6193  -10.1771   13.4081 O   0  0  0  0  0  0  0  0  0  0  0  0
  1  2  1  6
  2  3  1  0
  3  4  2  3
  4  5  1  0
  5  6  1  0
  4  7  1  0
  7  8  1  0
  8  9  1  0
  9 10  2  0
  9 11  1  0
 11 12  2  0
 12 13  1  0
 13 14  1  0
 14 15  2  0
 15 16  1  0
 16 17  2  0
 17 18  1  0
 19 18  1  1
 18 20  1  0
 20 21  2  0
 21 22  1  0
 22 23  2  0
 23 24  1  0
 12 25  1  0
 26 25  1  6
 26 27  1  0
 27 28  2  0
 28 29  1  0
 29 30  1  0
 29 31  2  0
 31 32  1  0
 31 33  1  0
 33 34  2  0
 34 35  1  0
 25 36  1  0
 36 37  2  0
 36  8  1  0
 23 14  1  0
 34 27  1  0
 21 16  1  0
M  END
$$$$
