_rank12
     RDKit          3D

 37 40  0  0  0  0  0  0  0  0999 V2000
   -4.4208  -11.5232   16.4473 C   0  0  0  0  0  0  0  0  0  0  0  0
   -3.3819  -10.7531   15.7730 N   0  0  0  0  0  0  0  0  0  0  0  0
   -3.5797  -10.2617   14.4718 N   0  0  0  0  0  0  0  0  0  0  0  0
   -3.3273   -9.0384   14.1015 C   0  0  0  0  0  0  0  0  0  0  0  0
   -2.1706   -8.3342   14.5725 N   0  0  0  0  0  0  0  0  0  0  0  0
   -2.2390   -7.2083   16.0983 Br  0  0  0  0  0  0  0  0  0  0  0  0
   -4.2292   -8.3695   13.2078 N   0  0  0  0  0  0  0  0  0  0  0  0
   -5.3922   -8.9901   12.7050 N   0  0  0  0  0  0  0  0  0  0  0  0
   -5.4070   -9.5288   11.4545 C   0  0  0  0  0  0  0  0  0  0  0  0
   -4.3857   -9.4776   10.7182 O   0  0  0  0  0  0  0  0  0  0  0  0
   -6.5286  -10.1167   10.9878 N   0  0  0  0  0  0  0  0  0  0  0  0
   -7.6651  -10.1499   11.7259 C   0  0  0  0  0  0  0  0  0  0  0  0
   -8.7998  -10.8625   11.2039 N   0  0  0  0  0  0  0  0  0  0  0  0
   -8.6776  -11.9370   10.2551 C   0  0  0  0  0  0  0  0  0  0  0  0
   -7.8373  -13.0454   10.5218 C   0  0  0  0  0  0  0  0  0  0  0  0
   -7.7390  -14.0352    9.5505 C   0  0  0  0  0  0  0  0  0  0  0  0
   -7.0274  -15.2099    9.5023 C   0  0  0  0  0  0  0  0  0  0  0  0
   -7.2996  -15.7883    8.3088 N   0  0  0  0  0  0  0  0  0  0  0  0
   -6.8076  -17.0839    7.8657 C   0  0  0  0  0  0  0  0  0  0  0  0
   -8.1568  -15.0495    7.6122 N   0  0  0  0  0  0  0  0  0  0  0  0
   -8.4223  -13.9687    8.3691 C   0  0  0  0  0  0  0  0  0  0  0  0
   -9.2517  -12.8964    8.0635 C   0  0  0  0  0  0  0  0  0  0  0  0
   -9.3715  -11.8654    9.0153 C   0  0  0  0  0  0  0  0  0  0  0  0
  -10.1756  -10.8069    8.7416 F   0  0  0  0  0  0  0  0  0  0  0  0
   -7.6905   -9.5566   12.9658 N   0  0  0  0  0  0  0  0  0  0  0  0
   -8.9395   -9.4421   13.7527 C   0  0  0  0  0  0  0  0  0  0  0  0
   -9.6197   -8.1201   13.4875 C   0  0  0  0  0  0  0  0  0  0  0  0
   -9.0797   -7.2236   12.5484 C   0  0  0  0  0  0  0  0  0  0  0  0
   -9.7213   -6.0115   12.2750 C   0  0  0  0  0  0  0  0  0  0  0  0
   -9.1938   -5.1571   11.3631 F   0  0  0  0  0  0  0  0  0  0  0  0
  -10.9062   -5.6822   12.9383 C   0  0  0  0  0  0  0  0  0  0  0  0
  -11.5331   -4.5095   12.6718 F   0  0  0  0  0  0  0  0  0  0  0  0
  -11.4470   -6.5623   13.8783 C   0  0  0  0  0  0  0  0  0  0  0  0
  -10.8096   -7.7760   14.1555 C   0  0  0  0  0  0  0  0  0  0  0  0
  -11.3456   -8.6030   15.0861 F   0  0  0  0  0  0  0  0  0  0  0  0
   -6.5356   -8.9909   13.4511 C   0  0  0  0  0  0  0  0  0  0  0  0
   -6.5199   -8.4710   14.6022 O   0  0  0  0  0  0  0  0  0  0  0  0
  1  2  1  6
  2  3  1  0
  3  4  2  3
  4  5  1  0
  5  6  1  0
  4  7  1  0
  7  8  1  0
  8  9  1  0
  9 10  2  0
  9 11  1  0
 11 12  2  0
 12 13  1  0
 13 14  1  0
 14 15  2  0
 15 16  1  0
 16 17  2  0
 17 18  1  0
 19 18  1  1
 18 20  1  0
 20 21  2  0
 21 22  1  0
 22 23  2  0
 23 24  1  0
 12 25  1  0
 26 25  1  6
 26 27  1  0
 27 28  2  0
 28 29  1  0
 29 30  1  0
 29 31  2  0
 31 32  1  0
 31 33  1  0
 33 34  2  0
 34 35  1  0
 25 36  1  0
 36 37  2  0
 36  8  1  0
 23 14  1  0
 34 27  1  0
 21 16  1  0
M  END
$$$$
