_rank8
     RDKit          3D

 37 40  0  0  0  0  0  0  0  0999 V2000
   -4.9677   -4.8372   14.8123 C   0  0  0  0  0  0  0  0  0  0  0  0
   -4.4679   -6.1113   14.2753 N   0  0  0  0  0  0  0  0  0  0  0  0
   -5.3065   -6.8543   13.4893 N   0  0  0  0  0  0  0  0  0  0  0  0
   -5.7676   -7.9817   13.7966 C   0  0  0  0  0  0  0  0  0  0  0  0
   -6.3950   -8.2287   15.0443 N   0  0  0  0  0  0  0  0  0  0  0  0
   -6.8036   -6.8451   16.2366 Br  0  0  0  0  0  0  0  0  0  0  0  0
   -5.6303   -9.0495   12.8759 N   0  0  0  0  0  0  0  0  0  0  0  0
   -6.7268   -9.6592   12.2783 N   0  0  0  0  0  0  0  0  0  0  0  0
   -6.8605   -9.9582   10.9918 C   0  0  0  0  0  0  0  0  0  0  0  0
   -5.9615   -9.6320   10.1725 O   0  0  0  0  0  0  0  0  0  0  0  0
   -7.9554  -10.6086   10.5361 N   0  0  0  0  0  0  0  0  0  0  0  0
   -8.9570  -10.9819   11.3478 C   0  0  0  0  0  0  0  0  0  0  0  0
  -10.0775  -11.6820   10.8255 N   0  0  0  0  0  0  0  0  0  0  0  0
  -10.0778  -12.3316    9.5773 C   0  0  0  0  0  0  0  0  0  0  0  0
   -9.0209  -13.1459    9.2457 C   0  0  0  0  0  0  0  0  0  0  0  0
   -8.9792  -13.8129    8.0301 C   0  0  0  0  0  0  0  0  0  0  0  0
   -8.0833  -14.6717    7.4401 C   0  0  0  0  0  0  0  0  0  0  0  0
   -8.5516  -15.0309    6.2308 N   0  0  0  0  0  0  0  0  0  0  0  0
   -7.8545  -15.9461    5.3202 C   0  0  0  0  0  0  0  0  0  0  0  0
   -9.7042  -14.4230    6.0539 N   0  0  0  0  0  0  0  0  0  0  0  0
   -9.9996  -13.6724    7.1275 C   0  0  0  0  0  0  0  0  0  0  0  0
  -11.0594  -12.8499    7.4707 C   0  0  0  0  0  0  0  0  0  0  0  0
  -11.0990  -12.1898    8.6762 C   0  0  0  0  0  0  0  0  0  0  0  0
  -12.1843  -11.3932    8.9470 F   0  0  0  0  0  0  0  0  0  0  0  0
   -8.8099  -10.6677   12.6685 N   0  0  0  0  0  0  0  0  0  0  0  0
   -9.8340  -11.1075   13.5657 C   0  0  0  0  0  0  0  0  0  0  0  0
   -9.7404  -12.4580   14.1226 C   0  0  0  0  0  0  0  0  0  0  0  0
   -9.0861  -12.6460   15.3624 C   0  0  0  0  0  0  0  0  0  0  0  0
   -8.9800  -13.8808   15.9439 C   0  0  0  0  0  0  0  0  0  0  0  0
   -8.3498  -14.0523   17.1381 F   0  0  0  0  0  0  0  0  0  0  0  0
   -9.5028  -15.0138   15.3589 C   0  0  0  0  0  0  0  0  0  0  0  0
   -9.3829  -16.2214   15.9512 F   0  0  0  0  0  0  0  0  0  0  0  0
  -10.1444  -14.8646   14.1562 C   0  0  0  0  0  0  0  0  0  0  0  0
  -10.2472  -13.6011   13.5720 C   0  0  0  0  0  0  0  0  0  0  0  0
  -10.9056  -13.5537   12.3981 F   0  0  0  0  0  0  0  0  0  0  0  0
   -7.7352  -10.0279   13.1371 C   0  0  0  0  0  0  0  0  0  0  0  0
   -7.5991   -9.7441   14.3699 O   0  0  0  0  0  0  0  0  0  0  0  0
  1  2  1  6
  2  3  1  0
  3  4  2  3
  4  5  1  0
  5  6  1  0
  4  7  1  0
  7  8  1  0
  8  9  1  0
  9 10  2  0
  9 11  1  0
 11 12  2  0
 12 13  1  0
 13 14  1  0
 14 15  2  0
 15 16  1  0
 16 17  2  0
 17 18  1  0
 19 18  1  1
 18 20  1  0
 20 21  2  0
 21 22  1  0
 22 23  2  0
 23 24  1  0
 12 25  1  0
 26 25  1  6
 26 27  1  0
 27 28  2  0
 28 29  1  0
 29 30  1  0
 29 31  2  0
 31 32  1  0
 31 33  1  0
 33 34  2  0
 34 35  1  0
 25 36  1  0
 36 37  2  0
 36  8  1  0
 23 14  1  0
 34 27  1  0
 21 16  1  0
M  END
$$$$
