_rank1
     RDKit          3D

 21 23  0  0  0  0  0  0  0  0999 V2000
   18.4618   -1.4423   -9.5319 N   0  0  0  0  0  0  0  0  0  0  0  0
   19.5560   -1.2406   -9.8542 C   0  0  0  0  0  0  0  0  0  0  0  0
   20.9200   -0.9695  -10.2708 C   0  0  0  0  0  0  0  0  0  0  0  0
   21.9944   -1.5755   -9.6535 C   0  0  0  0  0  0  0  0  0  0  0  0
   23.2785   -1.3332  -10.0302 C   0  0  0  0  0  0  0  0  0  0  0  0
   23.5281   -0.4542  -11.0630 C   0  0  0  0  0  0  0  0  0  0  0  0
   24.8433   -0.1611  -11.5009 N   0  0  0  0  0  0  0  0  0  0  0  0
   25.2459    1.0285  -12.1934 C   0  0  0  0  0  0  0  0  0  0  0  0
   26.6664    0.8537  -12.6168 C   0  0  2  0  0  0  0  0  0  0  0  0
   26.8422    1.1587  -13.9745 O   0  0  0  0  0  0  0  0  0  0  0  0
   26.9900   -0.6065  -12.4243 C   0  0  0  0  0  0  0  0  0  0  0  0
   25.9874   -0.9951  -11.3283 C   0  0  1  0  0  0  0  0  0  0  0  0
   26.6133   -0.9005  -10.0106 C   0  0  0  0  0  0  0  0  0  0  0  0
   27.2497   -1.9968   -9.4829 C   0  0  0  0  0  0  0  0  0  0  0  0
   27.8640   -1.9904   -8.2483 C   0  0  0  0  0  0  0  0  0  0  0  0
   27.8482   -0.8420   -7.4977 C   0  0  0  0  0  0  0  0  0  0  0  0
   27.2207    0.2777   -7.9919 C   0  0  0  0  0  0  0  0  0  0  0  0
   27.2179    1.4086   -7.2264 F   0  0  0  0  0  0  0  0  0  0  0  0
   26.6164    0.2372   -9.2295 C   0  0  0  0  0  0  0  0  0  0  0  0
   22.4582    0.1293  -11.6547 N   0  0  0  0  0  0  0  0  0  0  0  0
   21.1854   -0.0981  -11.2959 C   0  0  0  0  0  0  0  0  0  0  0  0
  1  2  3  0
  2  3  1  0
  3  4  2  0
  4  5  1  0
  5  6  2  0
  6  7  1  0
  8  7  1  1
  8  9  1  0
  9 10  1  6
  9 11  1  0
 11 12  1  6
 12 13  1  1
 13 14  2  0
 14 15  1  0
 15 16  2  0
 16 17  1  0
 17 18  1  0
 17 19  2  0
  6 20  1  0
 20 21  2  0
 21  3  1  0
 12  7  1  0
 19 13  1  0
M  END
$$$$
