_rank6
     RDKit          3D

 21 23  0  0  0  0  0  0  0  0999 V2000
   18.3858    0.0971   -8.6963 N   0  0  0  0  0  0  0  0  0  0  0  0
   19.4379    0.0425   -9.1779 C   0  0  0  0  0  0  0  0  0  0  0  0
   20.7649   -0.0122   -9.7643 C   0  0  0  0  0  0  0  0  0  0  0  0
   20.9617    0.1755  -11.1166 C   0  0  0  0  0  0  0  0  0  0  0  0
   22.1971    0.1274  -11.6831 C   0  0  0  0  0  0  0  0  0  0  0  0
   23.2983   -0.1164  -10.8896 C   0  0  0  0  0  0  0  0  0  0  0  0
   24.6102   -0.1782  -11.4208 N   0  0  0  0  0  0  0  0  0  0  0  0
   25.1729    0.7454  -12.3627 C   0  0  0  0  0  0  0  0  0  0  0  0
   26.5037    0.2170  -12.7836 C   0  0  2  0  0  0  0  0  0  0  0  0
   26.6351    0.2004  -14.1800 O   0  0  0  0  0  0  0  0  0  0  0  0
   26.5683   -1.2082  -12.2953 C   0  0  0  0  0  0  0  0  0  0  0  0
   25.5922   -1.1651  -11.1108 C   0  0  1  0  0  0  0  0  0  0  0  0
   26.3172   -0.9282   -9.8637 C   0  0  0  0  0  0  0  0  0  0  0  0
   27.0124   -1.9574   -9.2784 C   0  0  0  0  0  0  0  0  0  0  0  0
   27.7209   -1.8169   -8.1037 C   0  0  0  0  0  0  0  0  0  0  0  0
   27.7430   -0.5971   -7.4761 C   0  0  0  0  0  0  0  0  0  0  0  0
   27.0587    0.4590   -8.0312 C   0  0  0  0  0  0  0  0  0  0  0  0
   27.0952    1.6631   -7.3880 F   0  0  0  0  0  0  0  0  0  0  0  0
   26.3606    0.2844   -9.2062 C   0  0  0  0  0  0  0  0  0  0  0  0
   23.0815   -0.2977   -9.5647 N   0  0  0  0  0  0  0  0  0  0  0  0
   21.8701   -0.2536   -8.9894 C   0  0  0  0  0  0  0  0  0  0  0  0
  1  2  3  0
  2  3  1  0
  3  4  2  0
  4  5  1  0
  5  6  2  0
  6  7  1  0
  8  7  1  1
  8  9  1  0
  9 10  1  6
  9 11  1  0
 11 12  1  6
 12 13  1  1
 13 14  2  0
 14 15  1  0
 15 16  2  0
 16 17  1  0
 17 18  1  0
 17 19  2  0
  6 20  1  0
 20 21  2  0
 21  3  1  0
 12  7  1  0
 19 13  1  0
M  END
$$$$
