_rank13
     RDKit          3D

 21 23  0  0  0  0  0  0  0  0999 V2000
   25.0823    7.6600   -9.8402 N   0  0  0  0  0  0  0  0  0  0  0  0
   25.1073    6.5117   -9.9912 C   0  0  0  0  0  0  0  0  0  0  0  0
   25.1617    5.0728  -10.1763 C   0  0  0  0  0  0  0  0  0  0  0  0
   26.0883    4.2969   -9.5115 C   0  0  0  0  0  0  0  0  0  0  0  0
   26.1540    2.9481   -9.6729 C   0  0  0  0  0  0  0  0  0  0  0  0
   25.2700    2.3232  -10.5271 C   0  0  0  0  0  0  0  0  0  0  0  0
   25.2887    0.9221  -10.7369 N   0  0  0  0  0  0  0  0  0  0  0  0
   26.2308    0.0055  -10.1631 C   0  0  0  0  0  0  0  0  0  0  0  0
   25.9984   -1.3348  -10.7772 C   0  0  2  0  0  0  0  0  0  0  0  0
   27.1919   -1.9016  -11.2478 O   0  0  0  0  0  0  0  0  0  0  0  0
   25.0943   -1.1075  -11.9625 C   0  0  0  0  0  0  0  0  0  0  0  0
   24.3774    0.1862  -11.5507 C   0  0  1  0  0  0  0  0  0  0  0  0
   23.1023   -0.1228  -10.9059 C   0  0  0  0  0  0  0  0  0  0  0  0
   22.5538    0.7758  -10.0245 C   0  0  0  0  0  0  0  0  0  0  0  0
   21.3564    0.5603   -9.3752 C   0  0  0  0  0  0  0  0  0  0  0  0
   20.6667   -0.6023   -9.6094 C   0  0  0  0  0  0  0  0  0  0  0  0
   21.1835   -1.5277  -10.4860 C   0  0  0  0  0  0  0  0  0  0  0  0
   20.4790   -2.6774  -10.7025 F   0  0  0  0  0  0  0  0  0  0  0  0
   22.3826   -1.2810  -11.1181 C   0  0  0  0  0  0  0  0  0  0  0  0
   24.3689    3.1046  -11.1693 N   0  0  0  0  0  0  0  0  0  0  0  0
   24.2901    4.4360  -11.0220 C   0  0  0  0  0  0  0  0  0  0  0  0
  1  2  3  0
  2  3  1  0
  3  4  2  0
  4  5  1  0
  5  6  2  0
  6  7  1  0
  8  7  1  1
  8  9  1  0
  9 10  1  6
  9 11  1  0
 11 12  1  6
 12 13  1  1
 13 14  2  0
 14 15  1  0
 15 16  2  0
 16 17  1  0
 17 18  1  0
 17 19  2  0
  6 20  1  0
 20 21  2  0
 21  3  1  0
 12  7  1  0
 19 13  1  0
M  END
$$$$
