_rank17
     RDKit          3D

 21 23  0  0  0  0  0  0  0  0999 V2000
   28.7886   -0.0242   -6.7460 N   0  0  0  0  0  0  0  0  0  0  0  0
   27.9827   -0.1555   -7.5677 C   0  0  0  0  0  0  0  0  0  0  0  0
   26.9885   -0.3308   -8.6111 C   0  0  0  0  0  0  0  0  0  0  0  0
   27.1513   -1.2688   -9.6092 C   0  0  0  0  0  0  0  0  0  0  0  0
   26.2308   -1.4464  -10.5944 C   0  0  0  0  0  0  0  0  0  0  0  0
   25.0920   -0.6688  -10.6071 C   0  0  0  0  0  0  0  0  0  0  0  0
   24.0973   -0.8069  -11.6064 N   0  0  0  0  0  0  0  0  0  0  0  0
   24.0643   -1.8258  -12.6151 C   0  0  0  0  0  0  0  0  0  0  0  0
   22.9535   -1.5018  -13.5578 C   0  0  2  0  0  0  0  0  0  0  0  0
   23.3806   -1.5420  -14.8932 O   0  0  0  0  0  0  0  0  0  0  0  0
   22.5332   -0.0871  -13.2481 C   0  0  0  0  0  0  0  0  0  0  0  0
   22.9627    0.0400  -11.7795 C   0  0  1  0  0  0  0  0  0  0  0  0
   21.8397   -0.2625  -10.8939 C   0  0  0  0  0  0  0  0  0  0  0  0
   21.6330   -1.5552  -10.4797 C   0  0  0  0  0  0  0  0  0  0  0  0
   20.5984   -1.9235   -9.6456 C   0  0  0  0  0  0  0  0  0  0  0  0
   19.7241   -0.9653   -9.1987 C   0  0  0  0  0  0  0  0  0  0  0  0
   19.8978    0.3415   -9.5915 C   0  0  0  0  0  0  0  0  0  0  0  0
   19.0147    1.2772   -9.1339 F   0  0  0  0  0  0  0  0  0  0  0  0
   20.9422    0.6755  -10.4258 C   0  0  0  0  0  0  0  0  0  0  0  0
   24.9530    0.2457   -9.6174 N   0  0  0  0  0  0  0  0  0  0  0  0
   25.8508    0.4343   -8.6381 C   0  0  0  0  0  0  0  0  0  0  0  0
  1  2  3  0
  2  3  1  0
  3  4  2  0
  4  5  1  0
  5  6  2  0
  6  7  1  0
  8  7  1  1
  8  9  1  0
  9 10  1  6
  9 11  1  0
 11 12  1  6
 12 13  1  1
 13 14  2  0
 14 15  1  0
 15 16  2  0
 16 17  1  0
 17 18  1  0
 17 19  2  0
  6 20  1  0
 20 21  2  0
 21  3  1  0
 12  7  1  0
 19 13  1  0
M  END
$$$$
