_rank12
     RDKit          3D

 21 23  0  0  0  0  0  0  0  0999 V2000
   29.0735   -0.9559   -5.9157 N   0  0  0  0  0  0  0  0  0  0  0  0
   28.4068   -0.8327   -6.8550 C   0  0  0  0  0  0  0  0  0  0  0  0
   27.5734   -0.6551   -8.0305 C   0  0  0  0  0  0  0  0  0  0  0  0
   28.0531   -0.9134   -9.2977 C   0  0  0  0  0  0  0  0  0  0  0  0
   27.2870   -0.7523  -10.4098 C   0  0  0  0  0  0  0  0  0  0  0  0
   25.9851   -0.3166  -10.2795 C   0  0  0  0  0  0  0  0  0  0  0  0
   25.1381   -0.1298  -11.3997 N   0  0  0  0  0  0  0  0  0  0  0  0
   25.4216   -0.5552  -12.7396 C   0  0  0  0  0  0  0  0  0  0  0  0
   24.3541   -0.0102  -13.6290 C   0  0  2  0  0  0  0  0  0  0  0  0
   24.8956    0.6416  -14.7467 O   0  0  0  0  0  0  0  0  0  0  0  0
   23.6042    1.0132  -12.8140 C   0  0  0  0  0  0  0  0  0  0  0  0
   23.8635    0.5101  -11.3867 C   0  0  1  0  0  0  0  0  0  0  0  0
   22.7621   -0.3413  -10.9404 C   0  0  0  0  0  0  0  0  0  0  0  0
   22.8387   -1.6998  -11.1246 C   0  0  0  0  0  0  0  0  0  0  0  0
   21.8444   -2.5712  -10.7328 C   0  0  0  0  0  0  0  0  0  0  0  0
   20.7175   -2.0742  -10.1284 C   0  0  0  0  0  0  0  0  0  0  0  0
   20.6033   -0.7185   -9.9260 C   0  0  0  0  0  0  0  0  0  0  0  0
   19.4723   -0.2476   -9.3227 F   0  0  0  0  0  0  0  0  0  0  0  0
   21.6156    0.1245  -10.3297 C   0  0  0  0  0  0  0  0  0  0  0  0
   25.5352   -0.0691   -9.0258 N   0  0  0  0  0  0  0  0  0  0  0  0
   26.2770   -0.2226   -7.9182 C   0  0  0  0  0  0  0  0  0  0  0  0
  1  2  3  0
  2  3  1  0
  3  4  2  0
  4  5  1  0
  5  6  2  0
  6  7  1  0
  8  7  1  1
  8  9  1  0
  9 10  1  6
  9 11  1  0
 11 12  1  6
 12 13  1  6
 13 14  2  0
 14 15  1  0
 15 16  2  0
 16 17  1  0
 17 18  1  0
 17 19  2  0
  6 20  1  0
 20 21  2  0
 21  3  1  0
 12  7  1  0
 19 13  1  0
M  END
$$$$
