_rank11
     RDKit          3D

 21 23  0  0  0  0  0  0  0  0999 V2000
   28.9588   -0.6605   -5.8437 N   0  0  0  0  0  0  0  0  0  0  0  0
   28.3209   -0.5615   -6.8055 C   0  0  0  0  0  0  0  0  0  0  0  0
   27.5085   -0.4207   -8.0005 C   0  0  0  0  0  0  0  0  0  0  0  0
   28.0432   -0.6023   -9.2590 C   0  0  0  0  0  0  0  0  0  0  0  0
   27.2975   -0.4742  -10.3891 C   0  0  0  0  0  0  0  0  0  0  0  0
   25.9605   -0.1522  -10.2867 C   0  0  0  0  0  0  0  0  0  0  0  0
   25.1323   -0.0050  -11.4267 N   0  0  0  0  0  0  0  0  0  0  0  0
   25.4610   -0.4290  -12.7567 C   0  0  0  0  0  0  0  0  0  0  0  0
   24.3941    0.0696  -13.6736 C   0  0  2  0  0  0  0  0  0  0  0  0
   24.9357    0.7332  -14.7842 O   0  0  0  0  0  0  0  0  0  0  0  0
   23.5889    1.0700  -12.8833 C   0  0  0  0  0  0  0  0  0  0  0  0
   23.8348    0.5871  -11.4468 C   0  0  1  0  0  0  0  0  0  0  0  0
   22.7562   -0.3017  -11.0180 C   0  0  0  0  0  0  0  0  0  0  0  0
   22.8909   -1.6582  -11.1818 C   0  0  0  0  0  0  0  0  0  0  0  0
   21.9214   -2.5634  -10.8045 C   0  0  0  0  0  0  0  0  0  0  0  0
   20.7600   -2.1038  -10.2366 C   0  0  0  0  0  0  0  0  0  0  0  0
   20.5874   -0.7513  -10.0556 C   0  0  0  0  0  0  0  0  0  0  0  0
   19.4230   -0.3180   -9.4887 F   0  0  0  0  0  0  0  0  0  0  0  0
   21.5763    0.1260  -10.4440 C   0  0  0  0  0  0  0  0  0  0  0  0
   25.4568    0.0214   -9.0412 N   0  0  0  0  0  0  0  0  0  0  0  0
   26.1777   -0.1010   -7.9162 C   0  0  0  0  0  0  0  0  0  0  0  0
  1  2  3  0
  2  3  1  0
  3  4  2  0
  4  5  1  0
  5  6  2  0
  6  7  1  0
  8  7  1  1
  8  9  1  0
  9 10  1  6
  9 11  1  0
 11 12  1  6
 12 13  1  6
 13 14  2  0
 14 15  1  0
 15 16  2  0
 16 17  1  0
 17 18  1  0
 17 19  2  0
  6 20  1  0
 20 21  2  0
 21  3  1  0
 12  7  1  0
 19 13  1  0
M  END
$$$$
