_rank18
     RDKit          3D

 21 23  0  0  0  0  0  0  0  0999 V2000
   28.8446   -0.2372   -7.1262 N   0  0  0  0  0  0  0  0  0  0  0  0
   27.9807   -0.3474   -7.8900 C   0  0  0  0  0  0  0  0  0  0  0  0
   26.9124   -0.4786   -8.8643 C   0  0  0  0  0  0  0  0  0  0  0  0
   27.1289   -1.0641  -10.0943 C   0  0  0  0  0  0  0  0  0  0  0  0
   26.1403   -1.1950  -11.0191 C   0  0  0  0  0  0  0  0  0  0  0  0
   24.8745   -0.7308  -10.7294 C   0  0  0  0  0  0  0  0  0  0  0  0
   23.8039   -0.8385  -11.6510 N   0  0  0  0  0  0  0  0  0  0  0  0
   23.6589   -1.8623  -12.6448 C   0  0  0  0  0  0  0  0  0  0  0  0
   22.4937   -1.5036  -13.5057 C   0  0  2  0  0  0  0  0  0  0  0  0
   22.8187   -1.5687  -14.8686 O   0  0  0  0  0  0  0  0  0  0  0  0
   22.1496   -0.0722  -13.1793 C   0  0  0  0  0  0  0  0  0  0  0  0
   22.6913    0.0488  -11.7478 C   0  0  1  0  0  0  0  0  0  0  0  0
   21.6269   -0.2058  -10.7787 C   0  0  0  0  0  0  0  0  0  0  0  0
   20.8471    0.8357  -10.3400 C   0  0  0  0  0  0  0  0  0  0  0  0
   19.8242    0.6801   -9.4284 C   0  0  0  0  0  0  0  0  0  0  0  0
   19.5590   -0.5684   -8.9252 C   0  0  0  0  0  0  0  0  0  0  0  0
   20.3182   -1.6376   -9.3401 C   0  0  0  0  0  0  0  0  0  0  0  0
   20.0356   -2.8703   -8.8250 F   0  0  0  0  0  0  0  0  0  0  0  0
   21.3330   -1.4473  -10.2525 C   0  0  0  0  0  0  0  0  0  0  0  0
   24.6848   -0.1596   -9.5157 N   0  0  0  0  0  0  0  0  0  0  0  0
   25.6483   -0.0223   -8.5919 C   0  0  0  0  0  0  0  0  0  0  0  0
  1  2  3  0
  2  3  1  0
  3  4  2  0
  4  5  1  0
  5  6  2  0
  6  7  1  0
  8  7  1  1
  8  9  1  0
  9 10  1  6
  9 11  1  0
 11 12  1  6
 12 13  1  1
 13 14  2  0
 14 15  1  0
 15 16  2  0
 16 17  1  0
 17 18  1  0
 17 19  2  0
  6 20  1  0
 20 21  2  0
 21  3  1  0
 12  7  1  0
 19 13  1  0
M  END
$$$$
