_rank3
     RDKit          3D

 21 23  0  0  0  0  0  0  0  0999 V2000
   18.0466   -0.9825   -9.3369 N   0  0  0  0  0  0  0  0  0  0  0  0
   19.1387   -0.8148   -9.6850 C   0  0  0  0  0  0  0  0  0  0  0  0
   20.5034   -0.6185  -10.1396 C   0  0  0  0  0  0  0  0  0  0  0  0
   21.4295   -1.6398  -10.0968 C   0  0  0  0  0  0  0  0  0  0  0  0
   22.7119   -1.4739  -10.5181 C   0  0  0  0  0  0  0  0  0  0  0  0
   23.1123   -0.2480  -11.0067 C   0  0  0  0  0  0  0  0  0  0  0  0
   24.4338   -0.0135  -11.4602 N   0  0  0  0  0  0  0  0  0  0  0  0
   24.8478    1.0766  -12.2951 C   0  0  0  0  0  0  0  0  0  0  0  0
   26.2739    0.8491  -12.6722 C   0  0  2  0  0  0  0  0  0  0  0  0
   26.4692    0.9759  -14.0554 O   0  0  0  0  0  0  0  0  0  0  0  0
   26.5928   -0.5737  -12.2877 C   0  0  0  0  0  0  0  0  0  0  0  0
   25.5743   -0.8176  -11.1649 C   0  0  1  0  0  0  0  0  0  0  0  0
   26.1817   -0.5529   -9.8618 C   0  0  0  0  0  0  0  0  0  0  0  0
   25.4090   -0.6174   -8.7288 C   0  0  0  0  0  0  0  0  0  0  0  0
   25.9045   -0.3817   -7.4636 C   0  0  0  0  0  0  0  0  0  0  0  0
   27.2310   -0.0665   -7.3113 C   0  0  0  0  0  0  0  0  0  0  0  0
   28.0381    0.0078   -8.4225 C   0  0  0  0  0  0  0  0  0  0  0  0
   29.3549    0.3236   -8.2457 F   0  0  0  0  0  0  0  0  0  0  0  0
   27.5109   -0.2335   -9.6724 C   0  0  0  0  0  0  0  0  0  0  0  0
   22.1864    0.7403  -11.0395 N   0  0  0  0  0  0  0  0  0  0  0  0
   20.9175    0.5941  -10.6281 C   0  0  0  0  0  0  0  0  0  0  0  0
  1  2  3  0
  2  3  1  0
  3  4  2  0
  4  5  1  0
  5  6  2  0
  6  7  1  0
  8  7  1  1
  8  9  1  0
  9 10  1  6
  9 11  1  0
 11 12  1  6
 12 13  1  1
 13 14  2  0
 14 15  1  0
 15 16  2  0
 16 17  1  0
 17 18  1  0
 17 19  2  0
  6 20  1  0
 20 21  2  0
 21  3  1  0
 12  7  1  0
 19 13  1  0
M  END
$$$$
