_rank5
     RDKit          3D

 21 23  0  0  0  0  0  0  0  0999 V2000
   18.0989    0.5607   -8.9859 N   0  0  0  0  0  0  0  0  0  0  0  0
   19.1589    0.4681   -9.4438 C   0  0  0  0  0  0  0  0  0  0  0  0
   20.4953    0.3437   -9.9973 C   0  0  0  0  0  0  0  0  0  0  0  0
   21.3541   -0.6540   -9.5854 C   0  0  0  0  0  0  0  0  0  0  0  0
   22.6091   -0.7854  -10.0926 C   0  0  0  0  0  0  0  0  0  0  0  0
   23.0498    0.1023  -11.0515 C   0  0  0  0  0  0  0  0  0  0  0  0
   24.3458    0.0170  -11.6175 N   0  0  0  0  0  0  0  0  0  0  0  0
   24.9100    0.9464  -12.5528 C   0  0  0  0  0  0  0  0  0  0  0  0
   26.2147    0.3919  -13.0194 C   0  0  2  0  0  0  0  0  0  0  0  0
   26.3105    0.4039  -14.4187 O   0  0  0  0  0  0  0  0  0  0  0  0
   26.2519   -1.0454  -12.5647 C   0  0  0  0  0  0  0  0  0  0  0  0
   25.3075   -1.0030  -11.3549 C   0  0  1  0  0  0  0  0  0  0  0  0
   26.0698   -0.8146  -10.1218 C   0  0  0  0  0  0  0  0  0  0  0  0
   26.1056   -1.8201   -9.1875 C   0  0  0  0  0  0  0  0  0  0  0  0
   26.8002   -1.7219   -8.0002 C   0  0  0  0  0  0  0  0  0  0  0  0
   27.4944   -0.5714   -7.7230 C   0  0  0  0  0  0  0  0  0  0  0  0
   27.4830    0.4589   -8.6342 C   0  0  0  0  0  0  0  0  0  0  0  0
   28.1811    1.5940   -8.3358 F   0  0  0  0  0  0  0  0  0  0  0  0
   26.7786    0.3280   -9.8111 C   0  0  0  0  0  0  0  0  0  0  0  0
   22.1897    1.0738  -11.4409 N   0  0  0  0  0  0  0  0  0  0  0  0
   20.9488    1.2181  -10.9513 C   0  0  0  0  0  0  0  0  0  0  0  0
  1  2  3  0
  2  3  1  0
  3  4  2  0
  4  5  1  0
  5  6  2  0
  6  7  1  0
  8  7  1  1
  8  9  1  0
  9 10  1  6
  9 11  1  0
 11 12  1  6
 12 13  1  1
 13 14  2  0
 14 15  1  0
 15 16  2  0
 16 17  1  0
 17 18  1  0
 17 19  2  0
  6 20  1  0
 20 21  2  0
 21  3  1  0
 12  7  1  0
 19 13  1  0
M  END
$$$$
