_rank16
     RDKit          3D

 18 19  0  0  0  0  0  0  0  0999 V2000
   19.7657   -3.2424  -10.6160 C   0  0  0  0  0  0  0  0  0  0  0  0
   20.1896   -1.8675  -11.1524 C   0  0  1  0  0  0  0  0  0  0  0  0
   19.7155   -0.8494  -10.1700 C   0  0  0  0  0  0  0  0  0  0  0  0
   20.7517    0.2802  -10.1719 C   0  0  1  0  0  0  0  0  0  0  0  0
   20.2230    1.4622   -9.4085 C   0  0  0  0  0  0  0  0  0  0  0  0
   21.9620   -0.3445   -9.5076 C   0  0  0  0  0  0  0  0  0  0  0  0
   22.5722   -1.2914  -10.5149 C   0  0  2  0  0  0  0  0  0  0  0  0
   23.6101   -0.5904  -11.1420 O   0  0  0  0  0  0  0  0  0  0  0  0
   24.9073   -0.4611  -10.7971 C   0  0  0  0  0  0  0  0  0  0  0  0
   25.8458   -0.5523  -11.8342 C   0  0  0  0  0  0  0  0  0  0  0  0
   27.1912   -0.4303  -11.5610 C   0  0  0  0  0  0  0  0  0  0  0  0
   28.1328   -0.5145  -12.5500 F   0  0  0  0  0  0  0  0  0  0  0  0
   27.6604   -0.2179  -10.2824 C   0  0  0  0  0  0  0  0  0  0  0  0
   26.7505   -0.1257   -9.2507 C   0  0  0  0  0  0  0  0  0  0  0  0
   27.1673    0.0961   -7.8849 C   0  0  0  0  0  0  0  0  0  0  0  0
   27.4974    0.2808   -6.8049 N   0  0  0  0  0  0  0  0  0  0  0  0
   25.3855   -0.2502   -9.5335 C   0  0  0  0  0  0  0  0  0  0  0  0
   21.6085   -1.8068  -11.5268 C   0  0  0  0  0  0  0  0  0  0  0  0
  2  1  1  1
  3  2  1  1
  3  4  1  0
  4  5  1  1
  4  6  1  0
  6  7  1  6
  7  8  1  6
  8  9  1  0
  9 10  2  0
 10 11  1  0
 11 12  1  0
 11 13  2  0
 13 14  1  0
 14 15  1  0
 15 16  3  0
 14 17  2  0
 18  7  1  6
 18  2  1  0
 17  9  1  0
M  END
$$$$
