_rank7
     RDKit          3D

 18 19  0  0  0  0  0  0  0  0999 V2000
   19.4647    1.7128  -10.3357 C   0  0  0  0  0  0  0  0  0  0  0  0
   19.9915    0.3683   -9.8137 C   0  0  1  0  0  0  0  0  0  0  0  0
   19.4601   -0.6915  -10.7198 C   0  0  0  0  0  0  0  0  0  0  0  0
   20.5329   -1.7836  -10.7969 C   0  0  1  0  0  0  0  0  0  0  0  0
   19.9752   -3.0031  -11.4760 C   0  0  0  0  0  0  0  0  0  0  0  0
   21.6463   -1.1345  -11.5941 C   0  0  0  0  0  0  0  0  0  0  0  0
   22.3183   -0.1405  -10.6753 C   0  0  2  0  0  0  0  0  0  0  0  0
   23.4393   -0.7879  -10.1404 O   0  0  0  0  0  0  0  0  0  0  0  0
   24.7499   -0.4862  -10.2397 C   0  0  0  0  0  0  0  0  0  0  0  0
   25.2534   -0.2893  -11.5328 C   0  0  0  0  0  0  0  0  0  0  0  0
   26.5835    0.0222  -11.7161 C   0  0  0  0  0  0  0  0  0  0  0  0
   27.1066    0.2206  -12.9647 F   0  0  0  0  0  0  0  0  0  0  0  0
   27.4561    0.1505  -10.6568 C   0  0  0  0  0  0  0  0  0  0  0  0
   26.9770   -0.0399   -9.3782 C   0  0  0  0  0  0  0  0  0  0  0  0
   27.8316    0.0778   -8.2190 C   0  0  0  0  0  0  0  0  0  0  0  0
   28.5100    0.1620   -7.3013 N   0  0  0  0  0  0  0  0  0  0  0  0
   25.6256   -0.3561   -9.1976 C   0  0  0  0  0  0  0  0  0  0  0  0
   21.4420    0.3672   -9.5832 C   0  0  0  0  0  0  0  0  0  0  0  0
  2  1  1  6
  3  2  1  1
  3  4  1  0
  4  5  1  6
  4  6  1  0
  6  7  1  6
  7  8  1  1
  8  9  1  0
  9 10  2  0
 10 11  1  0
 11 12  1  0
 11 13  2  0
 13 14  1  0
 14 15  1  0
 15 16  3  0
 14 17  2  0
 18  7  1  6
 18  2  1  0
 17  9  1  0
M  END
$$$$
