_rank12
     RDKit          3D

 18 19  0  0  0  0  0  0  0  0999 V2000
   19.9741   -3.0857  -10.6401 C   0  0  0  0  0  0  0  0  0  0  0  0
   20.2822   -1.7002  -11.2260 C   0  0  1  0  0  0  0  0  0  0  0  0
   19.6391   -0.6939  -10.3315 C   0  0  0  0  0  0  0  0  0  0  0  0
   20.5463    0.5416  -10.3348 C   0  0  1  0  0  0  0  0  0  0  0  0
   19.8457    1.6939   -9.6708 C   0  0  0  0  0  0  0  0  0  0  0  0
   21.7709    0.0874   -9.5663 C   0  0  0  0  0  0  0  0  0  0  0  0
   22.5430   -0.8344  -10.4816 C   0  0  2  0  0  0  0  0  0  0  0  0
   23.5383   -0.0545  -11.0842 O   0  0  0  0  0  0  0  0  0  0  0  0
   24.8777   -0.0784  -10.9287 C   0  0  0  0  0  0  0  0  0  0  0  0
   25.6482    0.0998  -12.0859 C   0  0  0  0  0  0  0  0  0  0  0  0
   27.0243    0.0879  -12.0080 C   0  0  0  0  0  0  0  0  0  0  0  0
   27.8054    0.2589  -13.1182 F   0  0  0  0  0  0  0  0  0  0  0  0
   27.6865   -0.0961  -10.8132 C   0  0  0  0  0  0  0  0  0  0  0  0
   26.9434   -0.2729   -9.6654 C   0  0  0  0  0  0  0  0  0  0  0  0
   27.5671   -0.4713   -8.3771 C   0  0  0  0  0  0  0  0  0  0  0  0
   28.0544   -0.6346   -7.3547 N   0  0  0  0  0  0  0  0  0  0  0  0
   25.5465   -0.2599   -9.7500 C   0  0  0  0  0  0  0  0  0  0  0  0
   21.7077   -1.5016  -11.5186 C   0  0  0  0  0  0  0  0  0  0  0  0
  2  1  1  1
  3  2  1  1
  3  4  1  0
  4  5  1  1
  4  6  1  0
  6  7  1  6
  7  8  1  6
  8  9  1  0
  9 10  2  0
 10 11  1  0
 11 12  1  0
 11 13  2  0
 13 14  1  0
 14 15  1  0
 15 16  3  0
 14 17  2  0
 18  7  1  6
 18  2  1  0
 17  9  1  0
M  END
$$$$
