_rank15
     RDKit          3D

 18 19  0  0  0  0  0  0  0  0999 V2000
   20.4237   -3.1455  -11.3085 C   0  0  0  0  0  0  0  0  0  0  0  0
   20.6779   -1.6517  -11.5568 C   0  0  1  0  0  0  0  0  0  0  0  0
   19.7344   -0.8960  -10.6821 C   0  0  0  0  0  0  0  0  0  0  0  0
   20.4594    0.3857  -10.2564 C   0  0  1  0  0  0  0  0  0  0  0  0
   19.4926    1.3246   -9.5906 C   0  0  0  0  0  0  0  0  0  0  0  0
   21.5326   -0.1094   -9.3079 C   0  0  0  0  0  0  0  0  0  0  0  0
   22.5950   -0.7680  -10.1572 C   0  0  2  0  0  0  0  0  0  0  0  0
   23.5933    0.1930  -10.3617 O   0  0  0  0  0  0  0  0  0  0  0  0
   24.9338    0.0583  -10.4206 C   0  0  0  0  0  0  0  0  0  0  0  0
   25.5151    0.1069  -11.6951 C   0  0  0  0  0  0  0  0  0  0  0  0
   26.8798   -0.0232  -11.8372 C   0  0  0  0  0  0  0  0  0  0  0  0
   27.4787    0.0197  -13.0666 F   0  0  0  0  0  0  0  0  0  0  0  0
   27.7130   -0.2029  -10.7539 C   0  0  0  0  0  0  0  0  0  0  0  0
   27.1573   -0.2531   -9.4931 C   0  0  0  0  0  0  0  0  0  0  0  0
   27.9668   -0.4389   -8.3106 C   0  0  0  0  0  0  0  0  0  0  0  0
   28.6001   -0.5862   -7.3690 N   0  0  0  0  0  0  0  0  0  0  0  0
   25.7710   -0.1204   -9.3543 C   0  0  0  0  0  0  0  0  0  0  0  0
   22.0969   -1.2846  -11.4623 C   0  0  0  0  0  0  0  0  0  0  0  0
  2  1  1  1
  3  2  1  1
  3  4  1  0
  4  5  1  1
  4  6  1  0
  6  7  1  6
  7  8  1  6
  8  9  1  0
  9 10  2  0
 10 11  1  0
 11 12  1  0
 11 13  2  0
 13 14  1  0
 14 15  1  0
 15 16  3  0
 14 17  2  0
 18  7  1  6
 18  2  1  0
 17  9  1  0
M  END
$$$$
