_rank10
     RDKit          3D

 18 19  0  0  0  0  0  0  0  0999 V2000
   19.2684    1.4765  -10.3619 C   0  0  0  0  0  0  0  0  0  0  0  0
   19.8598    0.1945   -9.7583 C   0  0  1  0  0  0  0  0  0  0  0  0
   19.5834   -0.9108  -10.7219 C   0  0  0  0  0  0  0  0  0  0  0  0
   20.7698   -1.8775  -10.6351 C   0  0  1  0  0  0  0  0  0  0  0  0
   20.4527   -3.1462  -11.3764 C   0  0  0  0  0  0  0  0  0  0  0  0
   21.9076   -1.1041  -11.2704 C   0  0  0  0  0  0  0  0  0  0  0  0
   22.3276   -0.0488  -10.2735 C   0  0  2  0  0  0  0  0  0  0  0  0
   23.4248   -0.5727   -9.5781 O   0  0  0  0  0  0  0  0  0  0  0  0
   24.7471   -0.4331   -9.8037 C   0  0  0  0  0  0  0  0  0  0  0  0
   25.1692   -0.5140  -11.1378 C   0  0  0  0  0  0  0  0  0  0  0  0
   26.5053   -0.3813  -11.4487 C   0  0  0  0  0  0  0  0  0  0  0  0
   26.9503   -0.4552  -12.7404 F   0  0  0  0  0  0  0  0  0  0  0  0
   27.4627   -0.1677  -10.4803 C   0  0  0  0  0  0  0  0  0  0  0  0
   27.0644   -0.0856   -9.1630 C   0  0  0  0  0  0  0  0  0  0  0  0
   28.0103    0.1365   -8.0935 C   0  0  0  0  0  0  0  0  0  0  0  0
   28.7557    0.3054   -7.2418 N   0  0  0  0  0  0  0  0  0  0  0  0
   25.7064   -0.2211   -8.8527 C   0  0  0  0  0  0  0  0  0  0  0  0
   21.2535    0.3515   -9.3226 C   0  0  0  0  0  0  0  0  0  0  0  0
  2  1  1  6
  3  2  1  1
  3  4  1  0
  4  5  1  6
  4  6  1  0
  6  7  1  6
  7  8  1  1
  8  9  1  0
  9 10  2  0
 10 11  1  0
 11 12  1  0
 11 13  2  0
 13 14  1  0
 14 15  1  0
 15 16  3  0
 14 17  2  0
 18  7  1  6
 18  2  1  0
 17  9  1  0
M  END
$$$$
