_rank3
     RDKit          3D

 18 19  0  0  0  0  0  0  0  0999 V2000
   28.0932    1.6007  -11.2914 C   0  0  0  0  0  0  0  0  0  0  0  0
   27.5081    0.2092  -11.0101 C   0  0  1  0  0  0  0  0  0  0  0  0
   27.6097   -0.0189   -9.5390 C   0  0  0  0  0  0  0  0  0  0  0  0
   26.3911   -0.8580   -9.1383 C   0  0  1  0  0  0  0  0  0  0  0  0
   26.5503   -1.3522   -7.7277 C   0  0  0  0  0  0  0  0  0  0  0  0
   25.2302    0.1045   -9.2877 C   0  0  0  0  0  0  0  0  0  0  0  0
   24.9874    0.2683  -10.7702 C   0  0  2  0  0  0  0  0  0  0  0  0
   23.9524   -0.6146  -11.1038 O   0  0  0  0  0  0  0  0  0  0  0  0
   22.6480   -0.5971  -10.7621 C   0  0  0  0  0  0  0  0  0  0  0  0
   22.0929    0.6549  -10.4638 C   0  0  0  0  0  0  0  0  0  0  0  0
   20.7656    0.7544  -10.1061 C   0  0  0  0  0  0  0  0  0  0  0  0
   20.1931    1.9610   -9.8088 F   0  0  0  0  0  0  0  0  0  0  0  0
   19.9454   -0.3506  -10.0284 C   0  0  0  0  0  0  0  0  0  0  0  0
   20.4756   -1.5897  -10.3187 C   0  0  0  0  0  0  0  0  0  0  0  0
   19.6775   -2.7929  -10.2588 C   0  0  0  0  0  0  0  0  0  0  0  0
   19.0378   -3.7406  -10.2123 N   0  0  0  0  0  0  0  0  0  0  0  0
   21.8239   -1.6854  -10.6814 C   0  0  0  0  0  0  0  0  0  0  0  0
   26.1855    0.0064  -11.6154 C   0  0  0  0  0  0  0  0  0  0  0  0
  2  1  1  1
  3  2  1  1
  3  4  1  0
  4  5  1  1
  4  6  1  0
  6  7  1  6
  7  8  1  6
  8  9  1  0
  9 10  2  0
 10 11  1  0
 11 12  1  0
 11 13  2  0
 13 14  1  0
 14 15  1  0
 15 16  3  0
 14 17  2  0
 18  7  1  6
 18  2  1  0
 17  9  1  0
M  END
$$$$
