_rank8
     RDKit          3D

 18 19  0  0  0  0  0  0  0  0999 V2000
   20.0784   -3.3904  -10.6892 C   0  0  0  0  0  0  0  0  0  0  0  0
   20.3192   -2.0125  -11.3226 C   0  0  1  0  0  0  0  0  0  0  0  0
   19.5973   -1.0126  -10.4826 C   0  0  0  0  0  0  0  0  0  0  0  0
   20.4307    0.2735  -10.5151 C   0  0  1  0  0  0  0  0  0  0  0  0
   19.6484    1.4068   -9.9124 C   0  0  0  0  0  0  0  0  0  0  0  0
   21.6610   -0.0778   -9.7030 C   0  0  0  0  0  0  0  0  0  0  0  0
   22.5072   -0.9866  -10.5642 C   0  0  2  0  0  0  0  0  0  0  0  0
   23.4695   -0.1727  -11.1755 O   0  0  0  0  0  0  0  0  0  0  0  0
   24.8084   -0.1377  -11.0182 C   0  0  0  0  0  0  0  0  0  0  0  0
   25.5752   -0.0067  -12.1842 C   0  0  0  0  0  0  0  0  0  0  0  0
   26.9505    0.0365  -12.1051 C   0  0  0  0  0  0  0  0  0  0  0  0
   27.7280    0.1637  -13.2237 F   0  0  0  0  0  0  0  0  0  0  0  0
   27.6157   -0.0456  -10.9006 C   0  0  0  0  0  0  0  0  0  0  0  0
   26.8764   -0.1748   -9.7441 C   0  0  0  0  0  0  0  0  0  0  0  0
   27.5032   -0.2667   -8.4454 C   0  0  0  0  0  0  0  0  0  0  0  0
   27.9934   -0.3457   -7.4144 N   0  0  0  0  0  0  0  0  0  0  0  0
   25.4801   -0.2182   -9.8299 C   0  0  0  0  0  0  0  0  0  0  0  0
   21.7373   -1.7412  -11.5919 C   0  0  0  0  0  0  0  0  0  0  0  0
  2  1  1  1
  3  2  1  1
  3  4  1  0
  4  5  1  1
  4  6  1  0
  6  7  1  6
  7  8  1  6
  8  9  1  0
  9 10  2  0
 10 11  1  0
 11 12  1  0
 11 13  2  0
 13 14  1  0
 14 15  1  0
 15 16  3  0
 14 17  2  0
 18  7  1  6
 18  2  1  0
 17  9  1  0
M  END
$$$$
