_rank19
     RDKit          3D

 18 19  0  0  0  0  0  0  0  0999 V2000
   20.3528    0.9739   -8.8321 C   0  0  0  0  0  0  0  0  0  0  0  0
   20.8732   -0.3778   -9.3420 C   0  0  1  0  0  0  0  0  0  0  0  0
   19.9966   -0.7834  -10.4793 C   0  0  0  0  0  0  0  0  0  0  0  0
   20.8854   -1.5415  -11.4716 C   0  0  1  0  0  0  0  0  0  0  0  0
   20.0345   -2.2087  -12.5159 C   0  0  0  0  0  0  0  0  0  0  0  0
   21.7745   -0.4606  -12.0525 C   0  0  0  0  0  0  0  0  0  0  0  0
   22.7819   -0.1036  -10.9842 C   0  0  2  0  0  0  0  0  0  0  0  0
   23.9404   -0.8379  -11.2685 O   0  0  0  0  0  0  0  0  0  0  0  0
   25.1709   -0.7710  -10.7208 C   0  0  0  0  0  0  0  0  0  0  0  0
   26.2056   -1.4075  -11.4199 C   0  0  0  0  0  0  0  0  0  0  0  0
   27.4913   -1.3832  -10.9238 C   0  0  0  0  0  0  0  0  0  0  0  0
   28.5238   -1.9944  -11.5814 F   0  0  0  0  0  0  0  0  0  0  0  0
   27.8067   -0.7449   -9.7435 C   0  0  0  0  0  0  0  0  0  0  0  0
   26.8005   -0.1138   -9.0434 C   0  0  0  0  0  0  0  0  0  0  0  0
   27.0547    0.5755   -7.7991 C   0  0  0  0  0  0  0  0  0  0  0  0
   27.2471    1.1235   -6.8131 N   0  0  0  0  0  0  0  0  0  0  0  0
   25.4967   -0.1415   -9.5515 C   0  0  0  0  0  0  0  0  0  0  0  0
   22.3199   -0.3805   -9.5956 C   0  0  0  0  0  0  0  0  0  0  0  0
  2  1  1  6
  3  2  1  1
  3  4  1  0
  4  5  1  6
  4  6  1  0
  6  7  1  6
  7  8  1  6
  8  9  1  0
  9 10  2  0
 10 11  1  0
 11 12  1  0
 11 13  2  0
 13 14  1  0
 14 15  1  0
 15 16  3  0
 14 17  2  0
 18  7  1  6
 18  2  1  0
 17  9  1  0
M  END
$$$$
