_rank11
     RDKit          3D

 18 19  0  0  0  0  0  0  0  0999 V2000
   19.9238    1.6321   -9.9335 C   0  0  0  0  0  0  0  0  0  0  0  0
   20.4601    0.2322   -9.6013 C   0  0  1  0  0  0  0  0  0  0  0  0
   19.6190   -0.7474  -10.3492 C   0  0  0  0  0  0  0  0  0  0  0  0
   20.5381   -1.9112  -10.7371 C   0  0  1  0  0  0  0  0  0  0  0  0
   19.7200   -3.0575  -11.2626 C   0  0  0  0  0  0  0  0  0  0  0  0
   21.4443   -1.3133  -11.7943 C   0  0  0  0  0  0  0  0  0  0  0  0
   22.4183   -0.4100  -11.0738 C   0  0  2  0  0  0  0  0  0  0  0  0
   23.5852   -1.1595  -10.8772 O   0  0  0  0  0  0  0  0  0  0  0  0
   24.8614   -0.7572  -10.7096 C   0  0  0  0  0  0  0  0  0  0  0  0
   25.6701   -0.7385  -11.8543 C   0  0  0  0  0  0  0  0  0  0  0  0
   26.9862   -0.3393  -11.7637 C   0  0  0  0  0  0  0  0  0  0  0  0
   27.8022   -0.3096  -12.8615 F   0  0  0  0  0  0  0  0  0  0  0  0
   27.5504    0.0504  -10.5680 C   0  0  0  0  0  0  0  0  0  0  0  0
   26.7687    0.0378   -9.4324 C   0  0  0  0  0  0  0  0  0  0  0  0
   27.2904    0.4326   -8.1439 C   0  0  0  0  0  0  0  0  0  0  0  0
   27.7004    0.7538   -7.1250 N   0  0  0  0  0  0  0  0  0  0  0  0
   25.4330   -0.3685   -9.5298 C   0  0  0  0  0  0  0  0  0  0  0  0
   21.9138    0.1152   -9.7745 C   0  0  0  0  0  0  0  0  0  0  0  0
  2  1  1  6
  3  2  1  1
  3  4  1  0
  4  5  1  6
  4  6  1  0
  6  7  1  6
  7  8  1  1
  8  9  1  0
  9 10  2  0
 10 11  1  0
 11 12  1  0
 11 13  2  0
 13 14  1  0
 14 15  1  0
 15 16  3  0
 14 17  2  0
 18  7  1  6
 18  2  1  0
 17  9  1  0
M  END
$$$$
