_rank14
     RDKit          3D

 18 19  0  0  0  0  0  0  0  0999 V2000
   19.8328   -2.9243  -11.3176 C   0  0  0  0  0  0  0  0  0  0  0  0
   20.1765   -1.4405  -11.5123 C   0  0  1  0  0  0  0  0  0  0  0  0
   19.6059   -0.7027  -10.3476 C   0  0  0  0  0  0  0  0  0  0  0  0
   20.5617    0.4582  -10.0506 C   0  0  1  0  0  0  0  0  0  0  0  0
   19.9316    1.4017   -9.0645 C   0  0  0  0  0  0  0  0  0  0  0  0
   21.7926   -0.2268   -9.4920 C   0  0  0  0  0  0  0  0  0  0  0  0
   22.4948   -0.8815  -10.6591 C   0  0  2  0  0  0  0  0  0  0  0  0
   23.4995    0.0052  -11.0671 O   0  0  0  0  0  0  0  0  0  0  0  0
   24.8289   -0.0211  -10.8423 C   0  0  0  0  0  0  0  0  0  0  0  0
   25.6524   -0.2017  -11.9621 C   0  0  0  0  0  0  0  0  0  0  0  0
   27.0222   -0.2395  -11.8132 C   0  0  0  0  0  0  0  0  0  0  0  0
   27.8540   -0.4142  -12.8853 F   0  0  0  0  0  0  0  0  0  0  0  0
   27.6269   -0.1041  -10.5819 C   0  0  0  0  0  0  0  0  0  0  0  0
   26.8313    0.0742   -9.4702 C   0  0  0  0  0  0  0  0  0  0  0  0
   27.3931    0.2233   -8.1472 C   0  0  0  0  0  0  0  0  0  0  0  0
   27.8317    0.3478   -7.0977 N   0  0  0  0  0  0  0  0  0  0  0  0
   25.4411    0.1119   -9.6268 C   0  0  0  0  0  0  0  0  0  0  0  0
   21.5979   -1.2107  -11.8017 C   0  0  0  0  0  0  0  0  0  0  0  0
  2  1  1  1
  3  2  1  1
  3  4  1  0
  4  5  1  1
  4  6  1  0
  6  7  1  6
  7  8  1  6
  8  9  1  0
  9 10  2  0
 10 11  1  0
 11 12  1  0
 11 13  2  0
 13 14  1  0
 14 15  1  0
 15 16  3  0
 14 17  2  0
 18  7  1  6
 18  2  1  0
 17  9  1  0
M  END
$$$$
