_rank13
     RDKit          3D

 18 19  0  0  0  0  0  0  0  0999 V2000
   20.2728   -2.9594  -11.6626 C   0  0  0  0  0  0  0  0  0  0  0  0
   20.5444   -1.4571  -11.8274 C   0  0  1  0  0  0  0  0  0  0  0  0
   19.6589   -0.7438  -10.8613 C   0  0  0  0  0  0  0  0  0  0  0  0
   20.4285    0.4955  -10.3909 C   0  0  1  0  0  0  0  0  0  0  0  0
   19.5133    1.4055   -9.6202 C   0  0  0  0  0  0  0  0  0  0  0  0
   21.5358   -0.0775   -9.5295 C   0  0  0  0  0  0  0  0  0  0  0  0
   22.5432   -0.6976  -10.4699 C   0  0  2  0  0  0  0  0  0  0  0  0
   23.5493    0.2579  -10.6615 O   0  0  0  0  0  0  0  0  0  0  0  0
   24.8913    0.1246  -10.6507 C   0  0  0  0  0  0  0  0  0  0  0  0
   25.5209    0.0020  -11.8969 C   0  0  0  0  0  0  0  0  0  0  0  0
   26.8902   -0.1379  -11.9682 C   0  0  0  0  0  0  0  0  0  0  0  0
   27.5356   -0.2599  -13.1684 F   0  0  0  0  0  0  0  0  0  0  0  0
   27.6814   -0.1626  -10.8397 C   0  0  0  0  0  0  0  0  0  0  0  0
   27.0779   -0.0432   -9.6059 C   0  0  0  0  0  0  0  0  0  0  0  0
   27.8417   -0.0605   -8.3794 C   0  0  0  0  0  0  0  0  0  0  0  0
   28.4441   -0.0831   -7.4067 N   0  0  0  0  0  0  0  0  0  0  0  0
   25.6872    0.0987   -9.5391 C   0  0  0  0  0  0  0  0  0  0  0  0
   21.9732   -1.1205  -11.7793 C   0  0  0  0  0  0  0  0  0  0  0  0
  2  1  1  1
  3  2  1  1
  3  4  1  0
  4  5  1  1
  4  6  1  0
  6  7  1  6
  7  8  1  6
  8  9  1  0
  9 10  2  0
 10 11  1  0
 11 12  1  0
 11 13  2  0
 13 14  1  0
 14 15  1  0
 15 16  3  0
 14 17  2  0
 18  7  1  6
 18  2  1  0
 17  9  1  0
M  END
$$$$
