_rank9
     RDKit          3D

 21 23  0  0  0  0  0  0  0  0999 V2000
   29.4938   -0.4487   -5.5576 N   0  0  0  0  0  0  0  0  0  0  0  0
   28.7774   -0.4242   -6.4772 C   0  0  0  0  0  0  0  0  0  0  0  0
   27.9023   -0.3712   -7.5919 C   0  0  0  0  0  0  0  0  0  0  0  0
   27.5582    0.8695   -8.1111 C   0  0  0  0  0  0  0  0  0  0  0  0
   26.7226    0.9417   -9.1940 C   0  0  0  0  0  0  0  0  0  0  0  0
   26.1879   -0.1772   -9.8171 C   0  0  0  0  0  0  0  0  0  0  0  0
   25.3532   -0.0899  -10.9370 N   0  0  0  0  0  0  0  0  0  0  0  0
   25.5867   -0.7620  -12.1901 C   0  0  0  0  0  0  0  0  0  0  0  0
   24.9394    0.0601  -13.2684 C   0  0  1  0  0  0  0  0  0  0  0  0
   24.1042   -0.7094  -14.0396 O   0  0  0  0  0  0  0  0  0  0  0  0
   24.2647    1.1850  -12.5305 C   0  0  0  0  0  0  0  0  0  0  0  0
   24.1228    0.6620  -11.1217 C   0  0  1  0  0  0  0  0  0  0  0  0
   22.9213   -0.1393  -10.9505 C   0  0  0  0  0  0  0  0  0  0  0  0
   22.7895   -1.3959  -11.4671 C   0  0  0  0  0  0  0  0  0  0  0  0
   21.6130   -2.1481  -11.2751 C   0  0  0  0  0  0  0  0  0  0  0  0
   20.5961   -1.5863  -10.5535 C   0  0  0  0  0  0  0  0  0  0  0  0
   20.7254   -0.3161  -10.0292 C   0  0  0  0  0  0  0  0  0  0  0  0
   19.6758    0.1900   -9.3192 F   0  0  0  0  0  0  0  0  0  0  0  0
   21.8832    0.3853  -10.2357 C   0  0  0  0  0  0  0  0  0  0  0  0
   26.5566   -1.3795   -9.2661 N   0  0  0  0  0  0  0  0  0  0  0  0
   27.3697   -1.4802   -8.2092 C   0  0  0  0  0  0  0  0  0  0  0  0
  1  2  3  0
  2  3  1  0
  3  4  2  0
  4  5  1  0
  5  6  2  0
  6  7  1  0
  8  7  1  6
  8  9  1  0
  9 10  1  1
  9 11  1  0
 11 12  1  6
 12 13  1  6
 13 14  2  0
 14 15  1  0
 15 16  2  0
 16 17  1  0
 17 18  1  0
 17 19  2  0
  6 20  1  0
 20 21  2  0
 21  3  1  0
 12  7  1  0
 19 13  1  0
M  END
$$$$
