_rank6
     RDKit          3D

 21 23  0  0  0  0  0  0  0  0999 V2000
   17.9263   -0.9367   -9.3811 N   0  0  0  0  0  0  0  0  0  0  0  0
   19.0427   -0.8027   -9.6894 C   0  0  0  0  0  0  0  0  0  0  0  0
   20.3943   -0.6412  -10.0874 C   0  0  0  0  0  0  0  0  0  0  0  0
   20.7008    0.3340  -11.0267 C   0  0  0  0  0  0  0  0  0  0  0  0
   22.0017    0.5130  -11.4165 C   0  0  0  0  0  0  0  0  0  0  0  0
   23.0551   -0.2396  -10.9164 C   0  0  0  0  0  0  0  0  0  0  0  0
   24.3827   -0.0311  -11.3068 N   0  0  0  0  0  0  0  0  0  0  0  0
   24.8963    1.2024  -11.8465 C   0  0  0  0  0  0  0  0  0  0  0  0
   26.0617    0.8559  -12.7292 C   0  0  1  0  0  0  0  0  0  0  0  0
   27.1721    1.5875  -12.3882 O   0  0  0  0  0  0  0  0  0  0  0  0
   26.2143   -0.6342  -12.5840 C   0  0  0  0  0  0  0  0  0  0  0  0
   25.5118   -0.9466  -11.2850 C   0  0  1  0  0  0  0  0  0  0  0  0
   26.3811   -0.7692  -10.1327 C   0  0  0  0  0  0  0  0  0  0  0  0
   27.6830   -1.1791  -10.1174 C   0  0  0  0  0  0  0  0  0  0  0  0
   28.5000   -0.9841   -8.9854 C   0  0  0  0  0  0  0  0  0  0  0  0
   27.9549   -0.3698   -7.8918 C   0  0  0  0  0  0  0  0  0  0  0  0
   26.6390    0.0464   -7.9033 C   0  0  0  0  0  0  0  0  0  0  0  0
   26.1526    0.6524   -6.7816 F   0  0  0  0  0  0  0  0  0  0  0  0
   25.8751   -0.1595   -9.0209 C   0  0  0  0  0  0  0  0  0  0  0  0
   22.7006   -1.1911   -9.9923 N   0  0  0  0  0  0  0  0  0  0  0  0
   21.4394   -1.3885   -9.5937 C   0  0  0  0  0  0  0  0  0  0  0  0
  1  2  3  0
  2  3  1  0
  3  4  2  0
  4  5  1  0
  5  6  2  0
  6  7  1  0
  8  7  1  6
  8  9  1  0
  9 10  1  1
  9 11  1  0
 11 12  1  6
 12 13  1  1
 13 14  2  0
 14 15  1  0
 15 16  2  0
 16 17  1  0
 17 18  1  0
 17 19  2  0
  6 20  1  0
 20 21  2  0
 21  3  1  0
 12  7  1  0
 19 13  1  0
M  END
$$$$
