_rank11
     RDKit          3D

 21 23  0  0  0  0  0  0  0  0999 V2000
   29.6701   -0.9041   -6.4358 N   0  0  0  0  0  0  0  0  0  0  0  0
   28.8502   -0.7786   -7.2552 C   0  0  0  0  0  0  0  0  0  0  0  0
   27.8499   -0.6033   -8.2452 C   0  0  0  0  0  0  0  0  0  0  0  0
   28.1023   -1.0514   -9.5347 C   0  0  0  0  0  0  0  0  0  0  0  0
   27.1450   -0.9011  -10.5028 C   0  0  0  0  0  0  0  0  0  0  0  0
   25.9099   -0.3145  -10.2654 C   0  0  0  0  0  0  0  0  0  0  0  0
   24.9321   -0.1875  -11.2585 N   0  0  0  0  0  0  0  0  0  0  0  0
   24.9598   -0.8650  -12.5300 C   0  0  0  0  0  0  0  0  0  0  0  0
   24.2051   -0.0122  -13.5101 C   0  0  1  0  0  0  0  0  0  0  0  0
   23.2383   -0.7423  -14.1556 O   0  0  0  0  0  0  0  0  0  0  0  0
   23.6889    1.1384  -12.6888 C   0  0  0  0  0  0  0  0  0  0  0  0
   23.7217    0.6175  -11.2724 C   0  0  1  0  0  0  0  0  0  0  0  0
   22.5221   -0.1316  -10.9336 C   0  0  0  0  0  0  0  0  0  0  0  0
   22.5019   -1.4930  -10.8372 C   0  0  0  0  0  0  0  0  0  0  0  0
   21.3225   -2.1868  -10.4987 C   0  0  0  0  0  0  0  0  0  0  0  0
   20.1876   -1.4596  -10.2671 C   0  0  0  0  0  0  0  0  0  0  0  0
   20.2039   -0.0828  -10.3633 C   0  0  0  0  0  0  0  0  0  0  0  0
   19.0396    0.5866  -10.1215 F   0  0  0  0  0  0  0  0  0  0  0  0
   21.3681    0.5575  -10.6942 C   0  0  0  0  0  0  0  0  0  0  0  0
   25.7092    0.1131   -8.9762 N   0  0  0  0  0  0  0  0  0  0  0  0
   26.6255   -0.0198   -8.0113 C   0  0  0  0  0  0  0  0  0  0  0  0
  1  2  3  0
  2  3  1  0
  3  4  2  0
  4  5  1  0
  5  6  2  0
  6  7  1  0
  8  7  1  6
  8  9  1  0
  9 10  1  1
  9 11  1  0
 11 12  1  6
 12 13  1  6
 13 14  2  0
 14 15  1  0
 15 16  2  0
 16 17  1  0
 17 18  1  0
 17 19  2  0
  6 20  1  0
 20 21  2  0
 21  3  1  0
 12  7  1  0
 19 13  1  0
M  END
$$$$
