_rank20
     RDKit          3D

 21 23  0  0  0  0  0  0  0  0999 V2000
   17.8379    2.2554   -7.8431 N   0  0  0  0  0  0  0  0  0  0  0  0
   18.8954    1.8510   -8.1213 C   0  0  0  0  0  0  0  0  0  0  0  0
   20.1833    1.3754   -8.4768 C   0  0  0  0  0  0  0  0  0  0  0  0
   20.5754    1.4434   -9.8068 C   0  0  0  0  0  0  0  0  0  0  0  0
   21.8194    0.9990  -10.1691 C   0  0  0  0  0  0  0  0  0  0  0  0
   22.7316    0.4735   -9.2648 C   0  0  0  0  0  0  0  0  0  0  0  0
   24.0081    0.0438   -9.6450 N   0  0  0  0  0  0  0  0  0  0  0  0
   24.9165   -0.6845   -8.7959 C   0  0  0  0  0  0  0  0  0  0  0  0
   26.3118   -0.3682   -9.2549 C   0  0  1  0  0  0  0  0  0  0  0  0
   27.0260   -1.5174   -9.4870 O   0  0  0  0  0  0  0  0  0  0  0  0
   26.1213    0.5146  -10.4587 C   0  0  0  0  0  0  0  0  0  0  0  0
   24.7100    0.2200  -10.9057 C   0  0  1  0  0  0  0  0  0  0  0  0
   24.6399   -0.9424  -11.7768 C   0  0  0  0  0  0  0  0  0  0  0  0
   25.4409   -1.0967  -12.8714 C   0  0  0  0  0  0  0  0  0  0  0  0
   25.3517   -2.2407  -13.6900 C   0  0  0  0  0  0  0  0  0  0  0  0
   24.4362   -3.2020  -13.3612 C   0  0  0  0  0  0  0  0  0  0  0  0
   23.6246   -3.0500  -12.2552 C   0  0  0  0  0  0  0  0  0  0  0  0
   22.7305   -4.0433  -11.9797 F   0  0  0  0  0  0  0  0  0  0  0  0
   23.7393   -1.9253  -11.4827 C   0  0  0  0  0  0  0  0  0  0  0  0
   22.2966    0.4263   -7.9634 N   0  0  0  0  0  0  0  0  0  0  0  0
   21.0879    0.8520   -7.5812 C   0  0  0  0  0  0  0  0  0  0  0  0
  1  2  3  0
  2  3  1  0
  3  4  2  0
  4  5  1  0
  5  6  2  0
  6  7  1  0
  8  7  1  6
  8  9  1  0
  9 10  1  6
  9 11  1  0
 11 12  1  6
 12 13  1  6
 13 14  2  0
 14 15  1  0
 15 16  2  0
 16 17  1  0
 17 18  1  0
 17 19  2  0
  6 20  1  0
 20 21  2  0
 21  3  1  0
 12  7  1  0
 19 13  1  0
M  END
$$$$
