_rank16
     RDKit          3D

 21 23  0  0  0  0  0  0  0  0999 V2000
   29.5634   -0.6595   -6.3549 N   0  0  0  0  0  0  0  0  0  0  0  0
   28.7850   -0.5717   -7.2185 C   0  0  0  0  0  0  0  0  0  0  0  0
   27.8236   -0.4534   -8.2543 C   0  0  0  0  0  0  0  0  0  0  0  0
   26.5252   -0.0924   -7.9207 C   0  0  0  0  0  0  0  0  0  0  0  0
   25.5843    0.0376   -8.9076 C   0  0  0  0  0  0  0  0  0  0  0  0
   25.8584   -0.1748  -10.2515 C   0  0  0  0  0  0  0  0  0  0  0  0
   24.8929   -0.0166  -11.2521 N   0  0  0  0  0  0  0  0  0  0  0  0
   24.8539   -0.7665  -12.4820 C   0  0  0  0  0  0  0  0  0  0  0  0
   24.1770    0.0936  -13.5114 C   0  0  1  0  0  0  0  0  0  0  0  0
   23.1451   -0.5812  -14.1150 O   0  0  0  0  0  0  0  0  0  0  0  0
   23.7712    1.3324  -12.7593 C   0  0  0  0  0  0  0  0  0  0  0  0
   23.7613    0.8938  -11.3150 C   0  0  1  0  0  0  0  0  0  0  0  0
   22.4993    0.2788  -10.9353 C   0  0  0  0  0  0  0  0  0  0  0  0
   21.3635    1.0003  -10.7060 C   0  0  0  0  0  0  0  0  0  0  0  0
   20.1546    0.3706  -10.3470 C   0  0  0  0  0  0  0  0  0  0  0  0
   20.1440   -0.9922  -10.2317 C   0  0  0  0  0  0  0  0  0  0  0  0
   21.2902   -1.7255  -10.4630 C   0  0  0  0  0  0  0  0  0  0  0  0
   21.2164   -3.0816  -10.3314 F   0  0  0  0  0  0  0  0  0  0  0  0
   22.4466   -1.0797  -10.8102 C   0  0  0  0  0  0  0  0  0  0  0  0
   27.1549   -0.5309  -10.5296 N   0  0  0  0  0  0  0  0  0  0  0  0
   28.0938   -0.6659   -9.5870 C   0  0  0  0  0  0  0  0  0  0  0  0
  1  2  3  0
  2  3  1  0
  3  4  2  0
  4  5  1  0
  5  6  2  0
  6  7  1  0
  8  7  1  6
  8  9  1  0
  9 10  1  1
  9 11  1  0
 11 12  1  6
 12 13  1  6
 13 14  2  0
 14 15  1  0
 15 16  2  0
 16 17  1  0
 17 18  1  0
 17 19  2  0
  6 20  1  0
 20 21  2  0
 21  3  1  0
 12  7  1  0
 19 13  1  0
M  END
$$$$
