_rank5
     RDKit          3D

 21 23  0  0  0  0  0  0  0  0999 V2000
   17.8877   -1.4772   -9.7881 N   0  0  0  0  0  0  0  0  0  0  0  0
   19.0015   -1.2478  -10.0457 C   0  0  0  0  0  0  0  0  0  0  0  0
   20.3507   -0.9458  -10.3611 C   0  0  0  0  0  0  0  0  0  0  0  0
   21.3195   -1.9163  -10.1443 C   0  0  0  0  0  0  0  0  0  0  0  0
   22.6269   -1.6481  -10.4523 C   0  0  0  0  0  0  0  0  0  0  0  0
   23.0498   -0.4364  -10.9807 C   0  0  0  0  0  0  0  0  0  0  0  0
   24.3858   -0.1836  -11.3119 N   0  0  0  0  0  0  0  0  0  0  0  0
   24.8694    1.0410  -11.8976 C   0  0  0  0  0  0  0  0  0  0  0  0
   26.0977    0.7036  -12.6944 C   0  0  1  0  0  0  0  0  0  0  0  0
   27.1510    1.5094  -12.3401 O   0  0  0  0  0  0  0  0  0  0  0  0
   26.3128   -0.7659  -12.4508 C   0  0  0  0  0  0  0  0  0  0  0  0
   25.5542   -1.0375  -11.1744 C   0  0  1  0  0  0  0  0  0  0  0  0
   26.3481   -0.7493   -9.9905 C   0  0  0  0  0  0  0  0  0  0  0  0
   25.9889    0.1918   -9.0693 C   0  0  0  0  0  0  0  0  0  0  0  0
   26.7785    0.4400   -7.9283 C   0  0  0  0  0  0  0  0  0  0  0  0
   27.9236   -0.2891   -7.7626 C   0  0  0  0  0  0  0  0  0  0  0  0
   28.2903   -1.2417   -8.6916 C   0  0  0  0  0  0  0  0  0  0  0  0
   29.4442   -1.9359   -8.4709 F   0  0  0  0  0  0  0  0  0  0  0  0
   27.4985   -1.4560   -9.7879 C   0  0  0  0  0  0  0  0  0  0  0  0
   22.0554    0.4901  -11.1752 N   0  0  0  0  0  0  0  0  0  0  0  0
   20.7715    0.2562  -10.8831 C   0  0  0  0  0  0  0  0  0  0  0  0
  1  2  3  0
  2  3  1  0
  3  4  2  0
  4  5  1  0
  5  6  2  0
  6  7  1  0
  8  7  1  6
  8  9  1  0
  9 10  1  1
  9 11  1  0
 11 12  1  6
 12 13  1  1
 13 14  2  0
 14 15  1  0
 15 16  2  0
 16 17  1  0
 17 18  1  0
 17 19  2  0
  6 20  1  0
 20 21  2  0
 21  3  1  0
 12  7  1  0
 19 13  1  0
M  END
$$$$
