_rank2
     RDKit          3D

 21 23  0  0  0  0  0  0  0  0999 V2000
   18.1076   -1.1738   -9.3503 N   0  0  0  0  0  0  0  0  0  0  0  0
   19.2076   -1.0271   -9.7077 C   0  0  0  0  0  0  0  0  0  0  0  0
   20.5486   -0.8317  -10.1260 C   0  0  0  0  0  0  0  0  0  0  0  0
   20.9583    0.4479  -10.4755 C   0  0  0  0  0  0  0  0  0  0  0  0
   22.2522    0.6594  -10.8720 C   0  0  0  0  0  0  0  0  0  0  0  0
   23.1992   -0.3524  -10.9463 C   0  0  0  0  0  0  0  0  0  0  0  0
   24.5240   -0.1183  -11.3316 N   0  0  0  0  0  0  0  0  0  0  0  0
   24.9707    1.0265  -12.0843 C   0  0  0  0  0  0  0  0  0  0  0  0
   26.1948    0.6110  -12.8500 C   0  0  1  0  0  0  0  0  0  0  0  0
   27.2343    1.4790  -12.6250 O   0  0  0  0  0  0  0  0  0  0  0  0
   26.4474   -0.8076  -12.4157 C   0  0  0  0  0  0  0  0  0  0  0  0
   25.7138   -0.9213  -11.1014 C   0  0  1  0  0  0  0  0  0  0  0  0
   26.5177   -0.4603   -9.9807 C   0  0  0  0  0  0  0  0  0  0  0  0
   26.8464    0.8516   -9.7954 C   0  0  0  0  0  0  0  0  0  0  0  0
   27.6213    1.2648   -8.6929 C   0  0  0  0  0  0  0  0  0  0  0  0
   28.0414    0.3139   -7.8042 C   0  0  0  0  0  0  0  0  0  0  0  0
   27.7110   -1.0136   -7.9877 C   0  0  0  0  0  0  0  0  0  0  0  0
   28.1604   -1.9151   -7.0673 F   0  0  0  0  0  0  0  0  0  0  0  0
   26.9563   -1.3784   -9.0704 C   0  0  0  0  0  0  0  0  0  0  0  0
   22.7451   -1.5988  -10.5922 N   0  0  0  0  0  0  0  0  0  0  0  0
   21.4879   -1.8348  -10.2021 C   0  0  0  0  0  0  0  0  0  0  0  0
  1  2  3  0
  2  3  1  0
  3  4  2  0
  4  5  1  0
  5  6  2  0
  6  7  1  0
  8  7  1  6
  8  9  1  0
  9 10  1  1
  9 11  1  0
 11 12  1  6
 12 13  1  1
 13 14  2  0
 14 15  1  0
 15 16  2  0
 16 17  1  0
 17 18  1  0
 17 19  2  0
  6 20  1  0
 20 21  2  0
 21  3  1  0
 12  7  1  0
 19 13  1  0
M  END
$$$$
