_rank12
     RDKit          3D

 21 23  0  0  0  0  0  0  0  0999 V2000
   29.4334   -0.2621   -6.0732 N   0  0  0  0  0  0  0  0  0  0  0  0
   28.6427   -0.2437   -6.9299 C   0  0  0  0  0  0  0  0  0  0  0  0
   27.6790   -0.2448   -7.9704 C   0  0  0  0  0  0  0  0  0  0  0  0
   27.6366   -1.3274   -8.8385 C   0  0  0  0  0  0  0  0  0  0  0  0
   26.7063   -1.3526   -9.8436 C   0  0  0  0  0  0  0  0  0  0  0  0
   25.7828   -0.3374  -10.0498 C   0  0  0  0  0  0  0  0  0  0  0  0
   24.8230   -0.3864  -11.0670 N   0  0  0  0  0  0  0  0  0  0  0  0
   24.8138   -1.3457  -12.1423 C   0  0  0  0  0  0  0  0  0  0  0  0
   24.1255   -0.7022  -13.3127 C   0  0  1  0  0  0  0  0  0  0  0  0
   23.1161   -1.5008  -13.7900 O   0  0  0  0  0  0  0  0  0  0  0  0
   23.6825    0.6406  -12.7974 C   0  0  0  0  0  0  0  0  0  0  0  0
   23.6700    0.4684  -11.2979 C   0  0  1  0  0  0  0  0  0  0  0  0
   22.4200   -0.1008  -10.8197 C   0  0  0  0  0  0  0  0  0  0  0  0
   22.2103   -1.4457  -10.7170 C   0  0  0  0  0  0  0  0  0  0  0  0
   20.9884   -1.9632  -10.2418 C   0  0  0  0  0  0  0  0  0  0  0  0
   20.0075   -1.0804   -9.8826 C   0  0  0  0  0  0  0  0  0  0  0  0
   20.2156    0.2803   -9.9847 C   0  0  0  0  0  0  0  0  0  0  0  0
   19.1986    1.1101   -9.6118 F   0  0  0  0  0  0  0  0  0  0  0  0
   21.4156    0.7470  -10.4505 C   0  0  0  0  0  0  0  0  0  0  0  0
   25.8663    0.7106   -9.1668 N   0  0  0  0  0  0  0  0  0  0  0  0
   26.7642    0.7625   -8.1771 C   0  0  0  0  0  0  0  0  0  0  0  0
  1  2  3  0
  2  3  1  0
  3  4  2  0
  4  5  1  0
  5  6  2  0
  6  7  1  0
  8  7  1  6
  8  9  1  0
  9 10  1  1
  9 11  1  0
 11 12  1  6
 12 13  1  6
 13 14  2  0
 14 15  1  0
 15 16  2  0
 16 17  1  0
 17 18  1  0
 17 19  2  0
  6 20  1  0
 20 21  2  0
 21  3  1  0
 12  7  1  0
 19 13  1  0
M  END
$$$$
