_rank4
     RDKit          3D

 21 23  0  0  0  0  0  0  0  0999 V2000
   17.8243   -0.3943   -9.1615 N   0  0  0  0  0  0  0  0  0  0  0  0
   18.9273   -0.2779   -9.5211 C   0  0  0  0  0  0  0  0  0  0  0  0
   20.2764   -0.1464   -9.9382 C   0  0  0  0  0  0  0  0  0  0  0  0
   21.1230   -1.2392   -9.8113 C   0  0  0  0  0  0  0  0  0  0  0  0
   22.4269   -1.1360  -10.2182 C   0  0  0  0  0  0  0  0  0  0  0  0
   22.9635    0.0225  -10.7624 C   0  0  0  0  0  0  0  0  0  0  0  0
   24.2917    0.1074  -11.1948 N   0  0  0  0  0  0  0  0  0  0  0  0
   24.9212    1.3077  -11.6845 C   0  0  0  0  0  0  0  0  0  0  0  0
   26.0090    0.8897  -12.6328 C   0  0  1  0  0  0  0  0  0  0  0  0
   27.2056    1.4728  -12.2971 O   0  0  0  0  0  0  0  0  0  0  0  0
   25.9987   -0.6143  -12.5786 C   0  0  0  0  0  0  0  0  0  0  0  0
   25.3112   -0.9260  -11.2715 C   0  0  1  0  0  0  0  0  0  0  0  0
   26.2344   -0.9156  -10.1479 C   0  0  0  0  0  0  0  0  0  0  0  0
   27.4187   -1.5944  -10.1565 C   0  0  0  0  0  0  0  0  0  0  0  0
   28.2940   -1.5559   -9.0522 C   0  0  0  0  0  0  0  0  0  0  0  0
   27.9275   -0.8172   -7.9612 C   0  0  0  0  0  0  0  0  0  0  0  0
   26.7310   -0.1292   -7.9486 C   0  0  0  0  0  0  0  0  0  0  0  0
   26.4209    0.5893   -6.8308 F   0  0  0  0  0  0  0  0  0  0  0  0
   25.9057   -0.1894   -9.0395 C   0  0  0  0  0  0  0  0  0  0  0  0
   22.0874    1.0746  -10.8654 N   0  0  0  0  0  0  0  0  0  0  0  0
   20.8101    1.0027  -10.4759 C   0  0  0  0  0  0  0  0  0  0  0  0
  1  2  3  0
  2  3  1  0
  3  4  2  0
  4  5  1  0
  5  6  2  0
  6  7  1  0
  8  7  1  6
  8  9  1  0
  9 10  1  1
  9 11  1  0
 11 12  1  6
 12 13  1  1
 13 14  2  0
 14 15  1  0
 15 16  2  0
 16 17  1  0
 17 18  1  0
 17 19  2  0
  6 20  1  0
 20 21  2  0
 21  3  1  0
 12  7  1  0
 19 13  1  0
M  END
$$$$
