_rank3
     RDKit          3D

 21 23  0  0  0  0  0  0  0  0999 V2000
   17.8626   -1.3184   -9.6649 N   0  0  0  0  0  0  0  0  0  0  0  0
   18.9671   -1.1110   -9.9755 C   0  0  0  0  0  0  0  0  0  0  0  0
   20.3149   -0.8504  -10.3315 C   0  0  0  0  0  0  0  0  0  0  0  0
   21.2548   -1.8589  -10.1672 C   0  0  0  0  0  0  0  0  0  0  0  0
   22.5598   -1.6308  -10.5151 C   0  0  0  0  0  0  0  0  0  0  0  0
   23.0081   -0.4241  -11.0340 C   0  0  0  0  0  0  0  0  0  0  0  0
   24.3403   -0.2119  -11.4062 N   0  0  0  0  0  0  0  0  0  0  0  0
   24.8321    0.9757  -12.0577 C   0  0  0  0  0  0  0  0  0  0  0  0
   26.0352    0.5794  -12.8657 C   0  0  1  0  0  0  0  0  0  0  0  0
   27.1109    1.3802  -12.5720 O   0  0  0  0  0  0  0  0  0  0  0  0
   26.2295   -0.8814  -12.5605 C   0  0  0  0  0  0  0  0  0  0  0  0
   25.4960   -1.0809  -11.2564 C   0  0  1  0  0  0  0  0  0  0  0  0
   26.3223   -0.7549  -10.1049 C   0  0  0  0  0  0  0  0  0  0  0  0
   26.1325    0.3674   -9.3514 C   0  0  0  0  0  0  0  0  0  0  0  0
   26.9477    0.6485   -8.2363 C   0  0  0  0  0  0  0  0  0  0  0  0
   27.9428   -0.2356   -7.9226 C   0  0  0  0  0  0  0  0  0  0  0  0
   28.1379   -1.3717   -8.6818 C   0  0  0  0  0  0  0  0  0  0  0  0
   29.1476   -2.2148   -8.3190 F   0  0  0  0  0  0  0  0  0  0  0  0
   27.3264   -1.6124   -9.7581 C   0  0  0  0  0  0  0  0  0  0  0  0
   22.0417    0.5408  -11.1758 N   0  0  0  0  0  0  0  0  0  0  0  0
   20.7609    0.3465  -10.8441 C   0  0  0  0  0  0  0  0  0  0  0  0
  1  2  3  0
  2  3  1  0
  3  4  2  0
  4  5  1  0
  5  6  2  0
  6  7  1  0
  8  7  1  6
  8  9  1  0
  9 10  1  1
  9 11  1  0
 11 12  1  6
 12 13  1  1
 13 14  2  0
 14 15  1  0
 15 16  2  0
 16 17  1  0
 17 18  1  0
 17 19  2  0
  6 20  1  0
 20 21  2  0
 21  3  1  0
 12  7  1  0
 19 13  1  0
M  END
$$$$
