_rank18
     RDKit          3D

 21 23  0  0  0  0  0  0  0  0999 V2000
   29.0525    0.4327   -6.9597 N   0  0  0  0  0  0  0  0  0  0  0  0
   28.1910    0.2757   -7.7295 C   0  0  0  0  0  0  0  0  0  0  0  0
   27.1473    0.0614   -8.6655 C   0  0  0  0  0  0  0  0  0  0  0  0
   26.9209   -1.2278   -9.1281 C   0  0  0  0  0  0  0  0  0  0  0  0
   25.9108   -1.4575  -10.0244 C   0  0  0  0  0  0  0  0  0  0  0  0
   25.0816   -0.4551  -10.5079 C   0  0  0  0  0  0  0  0  0  0  0  0
   24.0388   -0.7074  -11.4064 N   0  0  0  0  0  0  0  0  0  0  0  0
   23.8709   -1.9319  -12.1474 C   0  0  0  0  0  0  0  0  0  0  0  0
   23.1346   -1.5940  -13.4128 C   0  0  1  0  0  0  0  0  0  0  0  0
   22.0343   -2.3992  -13.5720 O   0  0  0  0  0  0  0  0  0  0  0  0
   22.8335   -0.1244  -13.2924 C   0  0  0  0  0  0  0  0  0  0  0  0
   22.9345    0.1471  -11.8110 C   0  0  1  0  0  0  0  0  0  0  0  0
   21.6916   -0.1405  -11.1128 C   0  0  0  0  0  0  0  0  0  0  0  0
   21.1070   -1.3740  -11.1194 C   0  0  0  0  0  0  0  0  0  0  0  0
   19.9054   -1.6197  -10.4247 C   0  0  0  0  0  0  0  0  0  0  0  0
   19.3319   -0.5856   -9.7376 C   0  0  0  0  0  0  0  0  0  0  0  0
   19.9199    0.6631   -9.7282 C   0  0  0  0  0  0  0  0  0  0  0  0
   19.2992    1.6543   -9.0251 F   0  0  0  0  0  0  0  0  0  0  0  0
   21.0875    0.8650  -10.4143 C   0  0  0  0  0  0  0  0  0  0  0  0
   25.3464    0.8013  -10.0219 N   0  0  0  0  0  0  0  0  0  0  0  0
   26.3258    1.0551   -9.1473 C   0  0  0  0  0  0  0  0  0  0  0  0
  1  2  3  0
  2  3  1  0
  3  4  2  0
  4  5  1  0
  5  6  2  0
  6  7  1  0
  8  7  1  6
  8  9  1  0
  9 10  1  1
  9 11  1  0
 11 12  1  6
 12 13  1  1
 13 14  2  0
 14 15  1  0
 15 16  2  0
 16 17  1  0
 17 18  1  0
 17 19  2  0
  6 20  1  0
 20 21  2  0
 21  3  1  0
 12  7  1  0
 19 13  1  0
M  END
$$$$
