_rank14
     RDKit          3D

 21 23  0  0  0  0  0  0  0  0999 V2000
   29.7141   -0.5935   -6.3213 N   0  0  0  0  0  0  0  0  0  0  0  0
   28.9216   -0.5319   -7.1744 C   0  0  0  0  0  0  0  0  0  0  0  0
   27.9707   -0.4723   -8.2248 C   0  0  0  0  0  0  0  0  0  0  0  0
   26.6506   -0.1763   -7.9130 C   0  0  0  0  0  0  0  0  0  0  0  0
   25.7188   -0.1036   -8.9144 C   0  0  0  0  0  0  0  0  0  0  0  0
   26.0233   -0.3125  -10.2522 C   0  0  0  0  0  0  0  0  0  0  0  0
   25.0656   -0.2130  -11.2678 N   0  0  0  0  0  0  0  0  0  0  0  0
   24.9953   -1.0779  -12.4183 C   0  0  0  0  0  0  0  0  0  0  0  0
   24.3558   -0.2955  -13.5302 C   0  0  1  0  0  0  0  0  0  0  0  0
   23.2964   -0.9822  -14.0693 O   0  0  0  0  0  0  0  0  0  0  0  0
   24.0027    1.0273  -12.9053 C   0  0  0  0  0  0  0  0  0  0  0  0
   23.9737    0.7336  -11.4250 C   0  0  1  0  0  0  0  0  0  0  0  0
   22.6866    0.2127  -10.9924 C   0  0  0  0  0  0  0  0  0  0  0  0
   21.7065    1.0040  -10.4665 C   0  0  0  0  0  0  0  0  0  0  0  0
   20.4670    0.4666  -10.0645 C   0  0  0  0  0  0  0  0  0  0  0  0
   20.2655   -0.8779  -10.2136 C   0  0  0  0  0  0  0  0  0  0  0  0
   21.2538   -1.6815  -10.7451 C   0  0  0  0  0  0  0  0  0  0  0  0
   20.9932   -3.0153  -10.8679 F   0  0  0  0  0  0  0  0  0  0  0  0
   22.4456   -1.1245  -11.1250 C   0  0  0  0  0  0  0  0  0  0  0  0
   27.3404   -0.6032  -10.5086 N   0  0  0  0  0  0  0  0  0  0  0  0
   28.2711   -0.6815   -9.5515 C   0  0  0  0  0  0  0  0  0  0  0  0
  1  2  3  0
  2  3  1  0
  3  4  2  0
  4  5  1  0
  5  6  2  0
  6  7  1  0
  8  7  1  6
  8  9  1  0
  9 10  1  1
  9 11  1  0
 11 12  1  6
 12 13  1  6
 13 14  2  0
 14 15  1  0
 15 16  2  0
 16 17  1  0
 17 18  1  0
 17 19  2  0
  6 20  1  0
 20 21  2  0
 21  3  1  0
 12  7  1  0
 19 13  1  0
M  END
$$$$
