_rank17
     RDKit          3D

 21 23  0  0  0  0  0  0  0  0999 V2000
   29.4914   -0.1612   -6.5983 N   0  0  0  0  0  0  0  0  0  0  0  0
   28.6410   -0.1981   -7.3952 C   0  0  0  0  0  0  0  0  0  0  0  0
   27.6010   -0.2649   -8.3570 C   0  0  0  0  0  0  0  0  0  0  0  0
   27.7039   -1.1899   -9.3871 C   0  0  0  0  0  0  0  0  0  0  0  0
   26.7050   -1.2775  -10.3202 C   0  0  0  0  0  0  0  0  0  0  0  0
   25.5705   -0.4785  -10.2960 C   0  0  0  0  0  0  0  0  0  0  0  0
   24.5467   -0.5939  -11.2430 N   0  0  0  0  0  0  0  0  0  0  0  0
   24.3508   -1.7307  -12.1067 C   0  0  0  0  0  0  0  0  0  0  0  0
   23.6694   -1.2371  -13.3515 C   0  0  1  0  0  0  0  0  0  0  0  0
   22.5417   -1.9725  -13.6199 O   0  0  0  0  0  0  0  0  0  0  0  0
   23.4267    0.2255  -13.0934 C   0  0  0  0  0  0  0  0  0  0  0  0
   23.4926    0.3450  -11.5901 C   0  0  1  0  0  0  0  0  0  0  0  0
   22.2174    0.0463  -10.9579 C   0  0  0  0  0  0  0  0  0  0  0  0
   21.5158    0.9672  -10.2346 C   0  0  0  0  0  0  0  0  0  0  0  0
   20.2782    0.6456   -9.6416 C   0  0  0  0  0  0  0  0  0  0  0  0
   19.7907   -0.6214   -9.8076 C   0  0  0  0  0  0  0  0  0  0  0  0
   20.4968   -1.5554  -10.5384 C   0  0  0  0  0  0  0  0  0  0  0  0
   19.9586   -2.8027  -10.6676 F   0  0  0  0  0  0  0  0  0  0  0  0
   21.6959   -1.2074  -11.1004 C   0  0  0  0  0  0  0  0  0  0  0  0
   25.5163    0.4204   -9.2596 N   0  0  0  0  0  0  0  0  0  0  0  0
   26.4766    0.5285   -8.3351 C   0  0  0  0  0  0  0  0  0  0  0  0
  1  2  3  0
  2  3  1  0
  3  4  2  0
  4  5  1  0
  5  6  2  0
  6  7  1  0
  8  7  1  6
  8  9  1  0
  9 10  1  1
  9 11  1  0
 11 12  1  6
 12 13  1  1
 13 14  2  0
 14 15  1  0
 15 16  2  0
 16 17  1  0
 17 18  1  0
 17 19  2  0
  6 20  1  0
 20 21  2  0
 21  3  1  0
 12  7  1  0
 19 13  1  0
M  END
$$$$
