_rank8
     RDKit          3D

 21 23  0  0  0  0  0  0  0  0999 V2000
   17.5864    1.3151   -8.6360 N   0  0  0  0  0  0  0  0  0  0  0  0
   18.6312    1.0641   -9.0887 C   0  0  0  0  0  0  0  0  0  0  0  0
   19.9015    0.7794   -9.6513 C   0  0  0  0  0  0  0  0  0  0  0  0
   20.7308   -0.1248   -9.0017 C   0  0  0  0  0  0  0  0  0  0  0  0
   21.9574   -0.4214   -9.5344 C   0  0  0  0  0  0  0  0  0  0  0  0
   22.4306    0.1410  -10.7116 C   0  0  0  0  0  0  0  0  0  0  0  0
   23.6769   -0.1880  -11.2567 N   0  0  0  0  0  0  0  0  0  0  0  0
   24.2894    0.4870  -12.3728 C   0  0  0  0  0  0  0  0  0  0  0  0
   25.1885   -0.5027  -13.0580 C   0  0  1  0  0  0  0  0  0  0  0  0
   26.4546    0.0056  -13.2103 O   0  0  0  0  0  0  0  0  0  0  0  0
   25.1003   -1.7423  -12.2092 C   0  0  0  0  0  0  0  0  0  0  0  0
   24.6103   -1.2349  -10.8747 C   0  0  1  0  0  0  0  0  0  0  0  0
   25.6980   -0.7640  -10.0319 C   0  0  0  0  0  0  0  0  0  0  0  0
   26.2914   -1.5459   -9.0833 C   0  0  0  0  0  0  0  0  0  0  0  0
   27.3492   -1.0595   -8.2889 C   0  0  0  0  0  0  0  0  0  0  0  0
   27.7722    0.2254   -8.4904 C   0  0  0  0  0  0  0  0  0  0  0  0
   27.1750    1.0192   -9.4486 C   0  0  0  0  0  0  0  0  0  0  0  0
   27.6409    2.2926   -9.6018 F   0  0  0  0  0  0  0  0  0  0  0  0
   26.1500    0.5129  -10.2021 C   0  0  0  0  0  0  0  0  0  0  0  0
   21.5749    1.0292  -11.3148 N   0  0  0  0  0  0  0  0  0  0  0  0
   20.3726    1.3383  -10.8175 C   0  0  0  0  0  0  0  0  0  0  0  0
  1  2  3  0
  2  3  1  0
  3  4  2  0
  4  5  1  0
  5  6  2  0
  6  7  1  0
  8  7  1  6
  8  9  1  0
  9 10  1  1
  9 11  1  0
 11 12  1  6
 12 13  1  1
 13 14  2  0
 14 15  1  0
 15 16  2  0
 16 17  1  0
 17 18  1  0
 17 19  2  0
  6 20  1  0
 20 21  2  0
 21  3  1  0
 12  7  1  0
 19 13  1  0
M  END
$$$$
