_rank15
     RDKit          3D

 20 21  0  0  0  0  0  0  0  0999 V2000
   18.3719    0.3680  -12.5802 N   0  0  0  0  0  0  0  0  0  0  0  0
   19.2573    0.2117  -11.9049 C   0  0  0  0  0  0  0  0  0  0  0  0
   20.4013   -0.0124  -11.0159 C   0  0  0  0  0  0  0  0  0  0  0  0
   20.1202   -0.5485   -9.7833 C   0  0  0  0  0  0  0  0  0  0  0  0
   21.1487   -0.7727   -8.8958 C   0  0  0  0  0  0  0  0  0  0  0  0
   20.9091   -1.3095   -7.6591 F   0  0  0  0  0  0  0  0  0  0  0  0
   22.4173   -0.4531   -9.2755 C   0  0  0  0  0  0  0  0  0  0  0  0
   22.7778    0.0828  -10.4866 C   0  0  0  0  0  0  0  0  0  0  0  0
   24.0232    0.3809  -10.8109 O   0  0  0  0  0  0  0  0  0  0  0  0
   25.2550   -0.2396  -10.8375 C   0  0  1  0  0  0  0  0  0  0  0  0
   25.5112   -1.0523   -9.6250 C   0  0  0  0  0  0  0  0  0  0  0  0
   26.3085   -0.8556   -8.7181 O   0  0  0  0  0  0  0  0  0  0  0  0
   24.7007   -2.2096   -9.5447 O   0  0  0  0  0  0  0  0  0  0  0  0
   25.1155   -1.3079  -11.9572 C   0  0  0  0  0  0  0  0  0  0  0  0
   26.4827   -1.3545  -12.5600 C   0  0  0  0  0  0  0  0  0  0  0  0
   26.7787    0.1324  -12.6951 C   0  0  0  0  0  0  0  0  0  0  0  0
   26.3538    0.6019  -11.3204 C   0  0  2  0  0  0  0  0  0  0  0  0
   27.5518    0.7966  -10.4703 C   0  0  0  0  0  0  0  0  0  0  0  0
   27.2907    1.6114   -9.2897 N   0  0  0  0  0  0  0  0  0  0  0  0
   21.6861    0.2932  -11.3558 C   0  0  0  0  0  0  0  0  0  0  0  0
  1  2  3  0
  2  3  1  0
  3  4  2  0
  4  5  1  0
  5  6  1  0
  5  7  2  0
  7  8  1  0
  8  9  1  0
 10  9  1  1
 10 11  1  0
 11 12  2  0
 11 13  1  0
 14 10  1  6
 15 14  1  1
 16 15  1  6
 16 17  1  0
 17 18  1  1
 18 19  1  1
  8 20  2  0
 20  3  1  0
 17 10  1  0
M  END
$$$$
