_rank12
     RDKit          3D

 20 21  0  0  0  0  0  0  0  0999 V2000
   19.0514    0.0203   -8.6842 N   0  0  0  0  0  0  0  0  0  0  0  0
   19.9676   -0.1798   -9.3044 C   0  0  0  0  0  0  0  0  0  0  0  0
   21.1760   -0.4304  -10.0959 C   0  0  0  0  0  0  0  0  0  0  0  0
   21.0371   -1.2731  -11.1712 C   0  0  0  0  0  0  0  0  0  0  0  0
   22.1365   -1.5597  -11.9489 C   0  0  0  0  0  0  0  0  0  0  0  0
   22.0373   -2.3919  -13.0318 F   0  0  0  0  0  0  0  0  0  0  0  0
   23.3309   -0.9921  -11.6217 C   0  0  0  0  0  0  0  0  0  0  0  0
   23.5491   -0.1414  -10.5670 C   0  0  0  0  0  0  0  0  0  0  0  0
   24.7280    0.3836  -10.2848 O   0  0  0  0  0  0  0  0  0  0  0  0
   26.0561    0.0139  -10.3338 C   0  0  1  0  0  0  0  0  0  0  0  0
   26.3867   -0.7677  -11.5488 C   0  0  0  0  0  0  0  0  0  0  0  0
   26.6143   -1.9648  -11.6584 O   0  0  0  0  0  0  0  0  0  0  0  0
   26.4381    0.0188  -12.7242 O   0  0  0  0  0  0  0  0  0  0  0  0
   26.8127    1.3526  -10.5568 C   0  0  0  0  0  0  0  0  0  0  0  0
   28.0879    1.1566   -9.8017 C   0  0  0  0  0  0  0  0  0  0  0  0
   27.5550    0.5699   -8.5023 C   0  0  0  0  0  0  0  0  0  0  0  0
   26.6049   -0.4665   -9.0624 C   0  0  2  0  0  0  0  0  0  0  0  0
   27.2377   -1.8050   -8.9999 C   0  0  0  0  0  0  0  0  0  0  0  0
   27.9678   -2.0366   -7.7592 N   0  0  0  0  0  0  0  0  0  0  0  0
   22.3905    0.1164   -9.8036 C   0  0  0  0  0  0  0  0  0  0  0  0
  1  2  3  0
  2  3  1  0
  3  4  2  0
  4  5  1  0
  5  6  1  0
  5  7  2  0
  7  8  1  0
  8  9  1  0
 10  9  1  1
 10 11  1  0
 11 12  2  0
 11 13  1  0
 14 10  1  6
 15 14  1  1
 16 15  1  6
 16 17  1  0
 17 18  1  6
 18 19  1  1
  8 20  2  0
 20  3  1  0
 17 10  1  0
M  END
$$$$
