_rank8
     RDKit          3D

 20 21  0  0  0  0  0  0  0  0999 V2000
   18.5954    2.1901  -10.3638 N   0  0  0  0  0  0  0  0  0  0  0  0
   19.4768    1.4938  -10.3121 C   0  0  0  0  0  0  0  0  0  0  0  0
   20.6279    0.5870  -10.2690 C   0  0  0  0  0  0  0  0  0  0  0  0
   20.3459   -0.7569  -10.2609 C   0  0  0  0  0  0  0  0  0  0  0  0
   21.3819   -1.6624  -10.2089 C   0  0  0  0  0  0  0  0  0  0  0  0
   21.1412   -3.0104  -10.2035 F   0  0  0  0  0  0  0  0  0  0  0  0
   22.6586   -1.1889  -10.1680 C   0  0  0  0  0  0  0  0  0  0  0  0
   23.0204    0.1351  -10.1744 C   0  0  0  0  0  0  0  0  0  0  0  0
   24.2740    0.5490  -10.1298 O   0  0  0  0  0  0  0  0  0  0  0  0
   25.5394    0.0050  -10.2057 C   0  0  1  0  0  0  0  0  0  0  0  0
   25.7665   -1.0553   -9.1955 C   0  0  0  0  0  0  0  0  0  0  0  0
   25.8941   -0.9518   -7.9831 O   0  0  0  0  0  0  0  0  0  0  0  0
   25.8421   -2.3537   -9.7534 O   0  0  0  0  0  0  0  0  0  0  0  0
   25.5335   -0.7790  -11.5472 C   0  0  0  0  0  0  0  0  0  0  0  0
   26.9361   -0.6258  -12.0411 C   0  0  0  0  0  0  0  0  0  0  0  0
   27.1520    0.8631  -11.8102 C   0  0  0  0  0  0  0  0  0  0  0  0
   26.6149    0.9819  -10.4002 C   0  0  2  0  0  0  0  0  0  0  0  0
   27.7438    1.0250   -9.4412 C   0  0  0  0  0  0  0  0  0  0  0  0
   27.8989    2.3234   -8.7963 N   0  0  0  0  0  0  0  0  0  0  0  0
   21.9209    1.0182  -10.2268 C   0  0  0  0  0  0  0  0  0  0  0  0
  1  2  3  0
  2  3  1  0
  3  4  2  0
  4  5  1  0
  5  6  1  0
  5  7  2  0
  7  8  1  0
  8  9  1  0
 10  9  1  1
 10 11  1  0
 11 12  2  0
 11 13  1  0
 14 10  1  6
 15 14  1  1
 16 15  1  6
 16 17  1  0
 17 18  1  1
 18 19  1  1
  8 20  2  0
 20  3  1  0
 17 10  1  0
M  END
$$$$
