_rank3
     RDKit          3D

 20 21  0  0  0  0  0  0  0  0999 V2000
   18.4027    2.1516   -9.2730 N   0  0  0  0  0  0  0  0  0  0  0  0
   19.2390    1.4554   -9.5563 C   0  0  0  0  0  0  0  0  0  0  0  0
   20.3130    0.5308   -9.9318 C   0  0  0  0  0  0  0  0  0  0  0  0
   19.9792   -0.7999   -9.9921 C   0  0  0  0  0  0  0  0  0  0  0  0
   20.9450   -1.7222  -10.3270 C   0  0  0  0  0  0  0  0  0  0  0  0
   20.6500   -3.0573  -10.4017 F   0  0  0  0  0  0  0  0  0  0  0  0
   22.2058   -1.2782  -10.5893 C   0  0  0  0  0  0  0  0  0  0  0  0
   22.6159    0.0312  -10.5517 C   0  0  0  0  0  0  0  0  0  0  0  0
   23.8527    0.4161  -10.8107 O   0  0  0  0  0  0  0  0  0  0  0  0
   25.1382    0.0026  -10.5288 C   0  0  1  0  0  0  0  0  0  0  0  0
   25.2263   -0.7664   -9.2650 C   0  0  0  0  0  0  0  0  0  0  0  0
   24.4994   -0.7218   -8.2820 O   0  0  0  0  0  0  0  0  0  0  0  0
   26.3192   -1.6649   -9.2310 O   0  0  0  0  0  0  0  0  0  0  0  0
   25.4377   -1.0665  -11.6158 C   0  0  0  0  0  0  0  0  0  0  0  0
   26.8981   -0.8880  -11.8803 C   0  0  0  0  0  0  0  0  0  0  0  0
   26.9785    0.6280  -11.9892 C   0  0  0  0  0  0  0  0  0  0  0  0
   26.1725    1.0135  -10.7676 C   0  0  2  0  0  0  0  0  0  0  0  0
   27.0897    1.3930   -9.6674 C   0  0  0  0  0  0  0  0  0  0  0  0
   27.4463    2.8068   -9.6802 N   0  0  0  0  0  0  0  0  0  0  0  0
   21.5878    0.9325  -10.2020 C   0  0  0  0  0  0  0  0  0  0  0  0
  1  2  3  0
  2  3  1  0
  3  4  2  0
  4  5  1  0
  5  6  1  0
  5  7  2  0
  7  8  1  0
  8  9  1  0
 10  9  1  6
 10 11  1  0
 11 12  2  0
 11 13  1  0
 14 10  1  6
 15 14  1  1
 16 15  1  6
 16 17  1  0
 17 18  1  1
 18 19  1  1
  8 20  2  0
 20  3  1  0
 17 10  1  0
M  END
$$$$
