_rank9
     RDKit          3D

 20 21  0  0  0  0  0  0  0  0999 V2000
   18.6195    1.7556   -9.0503 N   0  0  0  0  0  0  0  0  0  0  0  0
   19.4565    1.1240   -9.4561 C   0  0  0  0  0  0  0  0  0  0  0  0
   20.5363    0.2804   -9.9776 C   0  0  0  0  0  0  0  0  0  0  0  0
   20.1796   -0.9780  -10.3957 C   0  0  0  0  0  0  0  0  0  0  0  0
   21.1485   -1.8251  -10.8850 C   0  0  0  0  0  0  0  0  0  0  0  0
   20.8315   -3.0858  -11.3154 F   0  0  0  0  0  0  0  0  0  0  0  0
   22.4351   -1.3808  -10.9380 C   0  0  0  0  0  0  0  0  0  0  0  0
   22.8691   -0.1403  -10.5419 C   0  0  0  0  0  0  0  0  0  0  0  0
   24.1302    0.2470  -10.6082 O   0  0  0  0  0  0  0  0  0  0  0  0
   25.3827   -0.2884  -10.3901 C   0  0  1  0  0  0  0  0  0  0  0  0
   25.3893   -1.3044   -9.3112 C   0  0  0  0  0  0  0  0  0  0  0  0
   25.2524   -2.5174   -9.3924 O   0  0  0  0  0  0  0  0  0  0  0  0
   25.5815   -0.7519   -8.0226 O   0  0  0  0  0  0  0  0  0  0  0  0
   25.6628   -1.1267  -11.6680 C   0  0  0  0  0  0  0  0  0  0  0  0
   27.1384   -0.9814  -11.8579 C   0  0  0  0  0  0  0  0  0  0  0  0
   27.3001    0.5176  -11.6489 C   0  0  0  0  0  0  0  0  0  0  0  0
   26.4749    0.6892  -10.3918 C   0  0  2  0  0  0  0  0  0  0  0  0
   27.3735    0.7816   -9.2172 C   0  0  0  0  0  0  0  0  0  0  0  0
   27.7214    2.1538   -8.8680 N   0  0  0  0  0  0  0  0  0  0  0  0
   21.8366    0.6853  -10.0479 C   0  0  0  0  0  0  0  0  0  0  0  0
  1  2  3  0
  2  3  1  0
  3  4  2  0
  4  5  1  0
  5  6  1  0
  5  7  2  0
  7  8  1  0
  8  9  1  0
 10  9  1  6
 10 11  1  0
 11 12  2  0
 11 13  1  0
 14 10  1  6
 15 14  1  1
 16 15  1  6
 16 17  1  0
 17 18  1  1
 18 19  1  1
  8 20  2  0
 20  3  1  0
 17 10  1  0
M  END
$$$$
