_rank13
     RDKit          3D

 20 21  0  0  0  0  0  0  0  0999 V2000
   18.3010    2.6142  -10.3236 N   0  0  0  0  0  0  0  0  0  0  0  0
   19.1216    1.8581  -10.1845 C   0  0  0  0  0  0  0  0  0  0  0  0
   20.1952    0.8723  -10.0273 C   0  0  0  0  0  0  0  0  0  0  0  0
   19.8049   -0.4196   -9.7737 C   0  0  0  0  0  0  0  0  0  0  0  0
   20.7645   -1.3922   -9.6036 C   0  0  0  0  0  0  0  0  0  0  0  0
   20.4149   -2.6923   -9.3535 F   0  0  0  0  0  0  0  0  0  0  0  0
   22.0761   -1.0354   -9.6944 C   0  0  0  0  0  0  0  0  0  0  0  0
   22.5443    0.2301   -9.9459 C   0  0  0  0  0  0  0  0  0  0  0  0
   23.8282    0.5313  -10.0219 O   0  0  0  0  0  0  0  0  0  0  0  0
   25.0031   -0.0703  -10.4227 C   0  0  1  0  0  0  0  0  0  0  0  0
   25.4030   -1.1889   -9.5366 C   0  0  0  0  0  0  0  0  0  0  0  0
   25.8386   -2.2924   -9.8353 O   0  0  0  0  0  0  0  0  0  0  0  0
   25.2407   -0.8994   -8.1609 O   0  0  0  0  0  0  0  0  0  0  0  0
   24.6272   -0.7862  -11.7496 C   0  0  0  0  0  0  0  0  0  0  0  0
   25.8760   -0.6785  -12.5641 C   0  0  0  0  0  0  0  0  0  0  0  0
   26.2300    0.7848  -12.3396 C   0  0  0  0  0  0  0  0  0  0  0  0
   26.0566    0.8605  -10.8380 C   0  0  2  0  0  0  0  0  0  0  0  0
   27.3838    0.8006  -10.1816 C   0  0  0  0  0  0  0  0  0  0  0  0
   27.3366    1.1296   -8.7620 N   0  0  0  0  0  0  0  0  0  0  0  0
   21.5196    1.1865  -10.1101 C   0  0  0  0  0  0  0  0  0  0  0  0
  1  2  3  0
  2  3  1  0
  3  4  2  0
  4  5  1  0
  5  6  1  0
  5  7  2  0
  7  8  1  0
  8  9  1  0
 10  9  1  1
 10 11  1  0
 11 12  2  0
 11 13  1  0
 14 10  1  6
 15 14  1  1
 16 15  1  6
 16 17  1  0
 17 18  1  1
 18 19  1  1
  8 20  2  0
 20  3  1  0
 17 10  1  0
M  END
$$$$
