_rank7
     RDKit          3D

 20 21  0  0  0  0  0  0  0  0999 V2000
   18.2288    2.2114   -9.2906 N   0  0  0  0  0  0  0  0  0  0  0  0
   19.0595    1.5329   -9.6278 C   0  0  0  0  0  0  0  0  0  0  0  0
   20.1488    0.6644  -10.0846 C   0  0  0  0  0  0  0  0  0  0  0  0
   19.8036   -0.6212  -10.4217 C   0  0  0  0  0  0  0  0  0  0  0  0
   20.7818   -1.4919  -10.8469 C   0  0  0  0  0  0  0  0  0  0  0  0
   20.4765   -2.7803  -11.1958 F   0  0  0  0  0  0  0  0  0  0  0  0
   22.0659   -1.0430  -10.9193 C   0  0  0  0  0  0  0  0  0  0  0  0
   22.4886    0.2238  -10.6024 C   0  0  0  0  0  0  0  0  0  0  0  0
   23.7478    0.6147  -10.6846 O   0  0  0  0  0  0  0  0  0  0  0  0
   25.0021    0.0415  -10.7137 C   0  0  1  0  0  0  0  0  0  0  0  0
   25.3012   -0.7399   -9.4905 C   0  0  0  0  0  0  0  0  0  0  0  0
   25.3017   -0.3756   -8.3225 O   0  0  0  0  0  0  0  0  0  0  0  0
   25.6292   -2.0909   -9.7550 O   0  0  0  0  0  0  0  0  0  0  0  0
   24.8930   -1.0503  -11.8139 C   0  0  0  0  0  0  0  0  0  0  0  0
   26.2550   -1.0548  -12.4300 C   0  0  0  0  0  0  0  0  0  0  0  0
   26.4922    0.4398  -12.5930 C   0  0  0  0  0  0  0  0  0  0  0  0
   26.0630    0.9161  -11.2220 C   0  0  2  0  0  0  0  0  0  0  0  0
   27.2609    1.1710  -10.3878 C   0  0  0  0  0  0  0  0  0  0  0  0
   27.8748    2.4678  -10.6473 N   0  0  0  0  0  0  0  0  0  0  0  0
   21.4470    1.0728  -10.1716 C   0  0  0  0  0  0  0  0  0  0  0  0
  1  2  3  0
  2  3  1  0
  3  4  2  0
  4  5  1  0
  5  6  1  0
  5  7  2  0
  7  8  1  0
  8  9  1  0
 10  9  1  1
 10 11  1  0
 11 12  2  0
 11 13  1  0
 14 10  1  6
 15 14  1  1
 16 15  1  6
 16 17  1  0
 17 18  1  1
 18 19  1  1
  8 20  2  0
 20  3  1  0
 17 10  1  0
M  END
$$$$
