_rank19
     RDKit          3D

 20 21  0  0  0  0  0  0  0  0999 V2000
   22.6543   -5.8854  -11.4348 N   0  0  0  0  0  0  0  0  0  0  0  0
   22.4764   -4.7879  -11.2672 C   0  0  0  0  0  0  0  0  0  0  0  0
   22.2491   -3.3528  -11.0721 C   0  0  0  0  0  0  0  0  0  0  0  0
   20.9627   -2.9733  -10.7776 C   0  0  0  0  0  0  0  0  0  0  0  0
   20.6793   -1.6384  -10.5944 C   0  0  0  0  0  0  0  0  0  0  0  0
   19.4098   -1.2212  -10.2954 F   0  0  0  0  0  0  0  0  0  0  0  0
   21.6929   -0.7358  -10.7119 C   0  0  0  0  0  0  0  0  0  0  0  0
   23.0005   -1.0360  -11.0014 C   0  0  0  0  0  0  0  0  0  0  0  0
   23.9514   -0.1254  -11.1093 O   0  0  0  0  0  0  0  0  0  0  0  0
   25.0572    0.2949  -10.3998 C   0  0  1  0  0  0  0  0  0  0  0  0
   24.7622    0.5236   -8.9655 C   0  0  0  0  0  0  0  0  0  0  0  0
   25.5379    0.7124   -8.0385 O   0  0  0  0  0  0  0  0  0  0  0  0
   23.3784    0.5122   -8.6694 O   0  0  0  0  0  0  0  0  0  0  0  0
   25.9865   -0.9501  -10.3763 C   0  0  0  0  0  0  0  0  0  0  0  0
   27.3576   -0.3567  -10.4279 C   0  0  0  0  0  0  0  0  0  0  0  0
   27.1743    0.6731  -11.5337 C   0  0  0  0  0  0  0  0  0  0  0  0
   25.8747    1.3030  -11.0811 C   0  0  2  0  0  0  0  0  0  0  0  0
   26.1565    2.5918  -10.4063 C   0  0  0  0  0  0  0  0  0  0  0  0
   26.7325    2.4289   -9.0768 N   0  0  0  0  0  0  0  0  0  0  0  0
   23.2343   -2.4161  -11.1807 C   0  0  0  0  0  0  0  0  0  0  0  0
  1  2  3  0
  2  3  1  0
  3  4  2  0
  4  5  1  0
  5  6  1  0
  5  7  2  0
  7  8  1  0
  8  9  1  0
 10  9  1  6
 10 11  1  0
 11 12  2  0
 11 13  1  0
 14 10  1  6
 15 14  1  1
 16 15  1  6
 16 17  1  0
 17 18  1  1
 18 19  1  1
  8 20  2  0
 20  3  1  0
 17 10  1  0
M  END
$$$$
