_rank16
     RDKit          3D

 20 21  0  0  0  0  0  0  0  0999 V2000
   28.8619    2.4280   -9.7435 N   0  0  0  0  0  0  0  0  0  0  0  0
   28.1017    1.6088   -9.6201 C   0  0  0  0  0  0  0  0  0  0  0  0
   27.0929    0.5563   -9.4654 C   0  0  0  0  0  0  0  0  0  0  0  0
   27.3620   -0.4143   -8.5321 C   0  0  0  0  0  0  0  0  0  0  0  0
   26.4607   -1.4384   -8.3460 C   0  0  0  0  0  0  0  0  0  0  0  0
   26.6915   -2.4223   -7.4221 F   0  0  0  0  0  0  0  0  0  0  0  0
   25.3258   -1.4514   -9.0994 C   0  0  0  0  0  0  0  0  0  0  0  0
   24.9857   -0.5196  -10.0480 C   0  0  0  0  0  0  0  0  0  0  0  0
   23.8736   -0.5744  -10.7588 O   0  0  0  0  0  0  0  0  0  0  0  0
   22.5139   -0.6408  -10.5365 C   0  0  1  0  0  0  0  0  0  0  0  0
   22.1772   -1.2900   -9.2475 C   0  0  0  0  0  0  0  0  0  0  0  0
   22.6009   -1.0454   -8.1261 O   0  0  0  0  0  0  0  0  0  0  0  0
   21.2315   -2.3349   -9.3766 O   0  0  0  0  0  0  0  0  0  0  0  0
   22.0960    0.8383  -10.3081 C   0  0  0  0  0  0  0  0  0  0  0  0
   20.7246    0.9032  -10.8994 C   0  0  0  0  0  0  0  0  0  0  0  0
   20.9530    0.1712  -12.2143 C   0  0  0  0  0  0  0  0  0  0  0  0
   21.7207   -1.0300  -11.7061 C   0  0  2  0  0  0  0  0  0  0  0  0
   20.8127   -2.1976  -11.6164 C   0  0  0  0  0  0  0  0  0  0  0  0
   19.8537   -2.0954  -10.5228 N   0  0  0  0  0  0  0  0  0  0  0  0
   25.9442    0.5052  -10.1986 C   0  0  0  0  0  0  0  0  0  0  0  0
  1  2  3  0
  2  3  1  0
  3  4  2  0
  4  5  1  0
  5  6  1  0
  5  7  2  0
  7  8  1  0
  8  9  1  0
 10  9  1  6
 10 11  1  0
 11 12  2  0
 11 13  1  0
 14 10  1  6
 15 14  1  1
 16 15  1  6
 16 17  1  0
 17 18  1  1
 18 19  1  1
  8 20  2  0
 20  3  1  0
 17 10  1  0
M  END
$$$$
