_rank5
     RDKit          3D

 20 21  0  0  0  0  0  0  0  0999 V2000
   18.3349    1.9753   -9.2499 N   0  0  0  0  0  0  0  0  0  0  0  0
   19.1799    1.2753   -9.4955 C   0  0  0  0  0  0  0  0  0  0  0  0
   20.2973    0.3812   -9.8137 C   0  0  0  0  0  0  0  0  0  0  0  0
   19.9771   -0.9307  -10.0627 C   0  0  0  0  0  0  0  0  0  0  0  0
   20.9817   -1.8254  -10.3560 C   0  0  0  0  0  0  0  0  0  0  0  0
   20.7020   -3.1408  -10.6141 F   0  0  0  0  0  0  0  0  0  0  0  0
   22.2664   -1.3734  -10.3897 C   0  0  0  0  0  0  0  0  0  0  0  0
   22.6652   -0.0812  -10.1547 C   0  0  0  0  0  0  0  0  0  0  0  0
   23.9257    0.3120  -10.1949 O   0  0  0  0  0  0  0  0  0  0  0  0
   25.1796   -0.2602  -10.2499 C   0  0  1  0  0  0  0  0  0  0  0  0
   25.3815   -1.2944   -9.2078 C   0  0  0  0  0  0  0  0  0  0  0  0
   25.6026   -2.4904   -9.3399 O   0  0  0  0  0  0  0  0  0  0  0  0
   25.2967   -0.7858   -7.8899 O   0  0  0  0  0  0  0  0  0  0  0  0
   25.1615   -1.0835  -11.5675 C   0  0  0  0  0  0  0  0  0  0  0  0
   26.5684   -0.9743  -12.0605 C   0  0  0  0  0  0  0  0  0  0  0  0
   26.8146    0.5160  -11.8732 C   0  0  0  0  0  0  0  0  0  0  0  0
   26.2759    0.6879  -10.4693 C   0  0  2  0  0  0  0  0  0  0  0  0
   27.4025    0.7361   -9.5079 C   0  0  0  0  0  0  0  0  0  0  0  0
   27.7371    2.0905   -9.0843 N   0  0  0  0  0  0  0  0  0  0  0  0
   21.5970    0.7918   -9.8579 C   0  0  0  0  0  0  0  0  0  0  0  0
  1  2  3  0
  2  3  1  0
  3  4  2  0
  4  5  1  0
  5  6  1  0
  5  7  2  0
  7  8  1  0
  8  9  1  0
 10  9  1  1
 10 11  1  0
 11 12  2  0
 11 13  1  0
 14 10  1  6
 15 14  1  1
 16 15  1  6
 16 17  1  0
 17 18  1  1
 18 19  1  1
  8 20  2  0
 20  3  1  0
 17 10  1  0
M  END
$$$$
