_rank20
     RDKit          3D

 20 21  0  0  0  0  0  0  0  0999 V2000
   29.8878    1.6698   -9.6912 N   0  0  0  0  0  0  0  0  0  0  0  0
   28.9888    1.0008   -9.5990 C   0  0  0  0  0  0  0  0  0  0  0  0
   27.8027    0.1463   -9.4877 C   0  0  0  0  0  0  0  0  0  0  0  0
   27.7353   -0.6628   -8.3803 C   0  0  0  0  0  0  0  0  0  0  0  0
   26.6529   -1.4988   -8.2216 C   0  0  0  0  0  0  0  0  0  0  0  0
   26.5478   -2.3173   -7.1289 F   0  0  0  0  0  0  0  0  0  0  0  0
   25.6803   -1.4924   -9.1754 C   0  0  0  0  0  0  0  0  0  0  0  0
   25.6748   -0.7140  -10.3058 C   0  0  0  0  0  0  0  0  0  0  0  0
   24.7098   -0.7436  -11.2074 O   0  0  0  0  0  0  0  0  0  0  0  0
   23.3389   -0.5963  -11.2509 C   0  0  1  0  0  0  0  0  0  0  0  0
   22.8485    0.4577  -10.3316 C   0  0  0  0  0  0  0  0  0  0  0  0
   22.1546    0.3468   -9.3301 O   0  0  0  0  0  0  0  0  0  0  0  0
   23.2616    1.7599  -10.7010 O   0  0  0  0  0  0  0  0  0  0  0  0
   23.0683    0.0062  -12.6573 C   0  0  0  0  0  0  0  0  0  0  0  0
   21.7547   -0.5948  -13.0418 C   0  0  0  0  0  0  0  0  0  0  0  0
   21.9907   -2.0490  -12.6589 C   0  0  0  0  0  0  0  0  0  0  0  0
   22.5888   -1.8552  -11.2822 C   0  0  2  0  0  0  0  0  0  0  0  0
   21.5564   -2.1155  -10.2516 C   0  0  0  0  0  0  0  0  0  0  0  0
   21.3463   -3.5355   -9.9963 N   0  0  0  0  0  0  0  0  0  0  0  0
   26.8066    0.1213  -10.4188 C   0  0  0  0  0  0  0  0  0  0  0  0
  1  2  3  0
  2  3  1  0
  3  4  2  0
  4  5  1  0
  5  6  1  0
  5  7  2  0
  7  8  1  0
  8  9  1  0
 10  9  1  1
 10 11  1  0
 11 12  2  0
 11 13  1  0
 14 10  1  6
 15 14  1  1
 16 15  1  6
 16 17  1  0
 17 18  1  1
 18 19  1  1
  8 20  2  0
 20  3  1  0
 17 10  1  0
M  END
$$$$
