_rank11
     RDKit          3D

 20 21  0  0  0  0  0  0  0  0999 V2000
   18.5245    2.1750  -10.1424 N   0  0  0  0  0  0  0  0  0  0  0  0
   19.3838    1.4499  -10.1542 C   0  0  0  0  0  0  0  0  0  0  0  0
   20.4951    0.4936  -10.1496 C   0  0  0  0  0  0  0  0  0  0  0  0
   20.1834   -0.8024   -9.8198 C   0  0  0  0  0  0  0  0  0  0  0  0
   21.1837   -1.7479   -9.7852 C   0  0  0  0  0  0  0  0  0  0  0  0
   20.9119   -3.0512   -9.4649 F   0  0  0  0  0  0  0  0  0  0  0  0
   22.4556   -1.3610  -10.0823 C   0  0  0  0  0  0  0  0  0  0  0  0
   22.8453   -0.0894  -10.4216 C   0  0  0  0  0  0  0  0  0  0  0  0
   24.0937    0.2416  -10.6990 O   0  0  0  0  0  0  0  0  0  0  0  0
   25.3656   -0.1840  -10.3768 C   0  0  1  0  0  0  0  0  0  0  0  0
   25.4289   -0.8406   -9.0496 C   0  0  0  0  0  0  0  0  0  0  0  0
   25.4035   -2.0329   -8.7763 O   0  0  0  0  0  0  0  0  0  0  0  0
   25.5303    0.0753   -7.9756 O   0  0  0  0  0  0  0  0  0  0  0  0
   25.6339   -1.3535  -11.3640 C   0  0  0  0  0  0  0  0  0  0  0  0
   27.0994   -1.2432  -11.6375 C   0  0  0  0  0  0  0  0  0  0  0  0
   27.2259    0.2542  -11.8795 C   0  0  0  0  0  0  0  0  0  0  0  0
   26.4304    0.7702  -10.6998 C   0  0  2  0  0  0  0  0  0  0  0  0
   27.3575    1.2177   -9.6338 C   0  0  0  0  0  0  0  0  0  0  0  0
   27.3852    2.6661   -9.4690 N   0  0  0  0  0  0  0  0  0  0  0  0
   21.7821    0.8384  -10.4402 C   0  0  0  0  0  0  0  0  0  0  0  0
  1  2  3  0
  2  3  1  0
  3  4  2  0
  4  5  1  0
  5  6  1  0
  5  7  2  0
  7  8  1  0
  8  9  1  0
 10  9  1  6
 10 11  1  0
 11 12  2  0
 11 13  1  0
 14 10  1  6
 15 14  1  1
 16 15  1  6
 16 17  1  0
 17 18  1  1
 18 19  1  1
  8 20  2  0
 20  3  1  0
 17 10  1  0
M  END
$$$$
