_rank10
     RDKit          3D

 20 21  0  0  0  0  0  0  0  0999 V2000
   19.8543    2.1156   -8.9708 N   0  0  0  0  0  0  0  0  0  0  0  0
   20.3643    1.2163   -9.4129 C   0  0  0  0  0  0  0  0  0  0  0  0
   21.0342    0.0566  -10.0095 C   0  0  0  0  0  0  0  0  0  0  0  0
   20.2236   -0.9770  -10.4098 C   0  0  0  0  0  0  0  0  0  0  0  0
   20.7909   -2.1010  -10.9670 C   0  0  0  0  0  0  0  0  0  0  0  0
   20.0157   -3.1507  -11.3823 F   0  0  0  0  0  0  0  0  0  0  0  0
   22.1456   -2.1472  -11.1028 C   0  0  0  0  0  0  0  0  0  0  0  0
   23.0202   -1.1575  -10.7296 C   0  0  0  0  0  0  0  0  0  0  0  0
   24.3298   -1.2473  -10.8774 O   0  0  0  0  0  0  0  0  0  0  0  0
   25.4446   -0.4639  -10.6621 C   0  0  1  0  0  0  0  0  0  0  0  0
   25.5769   -0.0350   -9.2496 C   0  0  0  0  0  0  0  0  0  0  0  0
   26.5892    0.1046   -8.5769 O   0  0  0  0  0  0  0  0  0  0  0  0
   24.3351    0.2395   -8.6288 O   0  0  0  0  0  0  0  0  0  0  0  0
   26.6363   -1.4435  -10.8481 C   0  0  0  0  0  0  0  0  0  0  0  0
   27.6984   -0.5821  -11.4517 C   0  0  0  0  0  0  0  0  0  0  0  0
   26.8928    0.1492  -12.5162 C   0  0  0  0  0  0  0  0  0  0  0  0
   25.6883    0.5501  -11.6922 C   0  0  2  0  0  0  0  0  0  0  0  0
   25.8068    1.9744  -11.3007 C   0  0  0  0  0  0  0  0  0  0  0  0
   25.1284    2.2828  -10.0475 N   0  0  0  0  0  0  0  0  0  0  0  0
   22.3863   -0.0308  -10.1638 C   0  0  0  0  0  0  0  0  0  0  0  0
  1  2  3  0
  2  3  1  0
  3  4  2  0
  4  5  1  0
  5  6  1  0
  5  7  2  0
  7  8  1  0
  8  9  1  0
 10  9  1  1
 10 11  1  0
 11 12  2  0
 11 13  1  0
 14 10  1  6
 15 14  1  1
 16 15  1  6
 16 17  1  0
 17 18  1  1
 18 19  1  1
  8 20  2  0
 20  3  1  0
 17 10  1  0
M  END
$$$$
