_rank18
     RDKit          3D

 17 18  0  0  0  0  0  0  0  0999 V2000
   28.2820    2.5496   -7.9777 N   0  0  0  0  0  0  0  0  0  0  0  0
   27.7348    1.4735   -8.4119 C   0  0  0  0  0  0  0  0  0  0  0  0
   27.1394    0.2605   -8.9139 C   0  0  0  0  0  0  0  0  0  0  0  0
   27.6260   -0.9800   -8.9014 C   0  0  0  0  0  0  0  0  0  0  0  0
   26.8664   -2.0500   -9.2338 C   0  0  0  0  0  0  0  0  0  0  0  0
   27.4105   -3.3329   -9.0774 F   0  0  0  0  0  0  0  0  0  0  0  0
   25.5334   -1.9423   -9.6256 C   0  0  0  0  0  0  0  0  0  0  0  0
   25.0426   -0.5872   -9.6353 C   0  0  0  0  0  0  0  0  0  0  0  0
   23.6908   -0.6172  -10.0608 O   0  0  0  0  0  0  0  0  0  0  0  0
   23.0578   -1.7128  -10.6257 C   0  0  0  0  0  0  0  0  0  0  0  0
   21.6122   -1.5992  -10.9944 C   0  0  2  0  0  0  0  0  0  0  0  0
   20.6837   -2.3758  -10.0965 C   0  0  0  0  0  0  0  0  0  0  0  0
   20.7114   -1.8742   -8.7345 N   0  0  0  0  0  0  0  0  0  0  0  0
   21.5061   -1.9174  -12.5017 C   0  0  0  0  0  0  0  0  0  0  0  0
   20.3458   -0.9279  -12.5387 C   0  0  0  0  0  0  0  0  0  0  0  0
   21.0670   -0.2521  -11.3464 C   0  0  0  0  0  0  0  0  0  0  0  0
   25.7663    0.4447   -9.3054 C   0  0  0  0  0  0  0  0  0  0  0  0
  1  2  3  0
  2  3  1  0
  3  4  2  0
  4  5  1  0
  5  6  1  0
  5  7  2  0
  7  8  1  0
  8  9  1  0
 10  9  1  6
 11 10  1  1
 11 12  1  0
 12 13  1  6
 14 11  1  6
 15 14  1  6
 16 15  1  6
  8 17  2  0
 17  3  1  0
 16 11  1  0
M  END
$$$$
