_rank11
     RDKit          3D

 17 18  0  0  0  0  0  0  0  0999 V2000
   28.2234    0.9280   -7.3984 N   0  0  0  0  0  0  0  0  0  0  0  0
   27.4945    0.5055   -8.3660 C   0  0  0  0  0  0  0  0  0  0  0  0
   26.6955    0.0220   -9.4640 C   0  0  0  0  0  0  0  0  0  0  0  0
   27.0706   -0.6983  -10.5205 C   0  0  0  0  0  0  0  0  0  0  0  0
   26.1697   -1.2452  -11.3700 C   0  0  0  0  0  0  0  0  0  0  0  0
   26.6349   -2.0923  -12.3862 F   0  0  0  0  0  0  0  0  0  0  0  0
   24.7930   -1.0898  -11.2198 C   0  0  0  0  0  0  0  0  0  0  0  0
   24.4235   -0.2995  -10.0725 C   0  0  0  0  0  0  0  0  0  0  0  0
   23.0092   -0.2090  -10.0440 O   0  0  0  0  0  0  0  0  0  0  0  0
   22.1401   -1.2827  -10.1537 C   0  0  0  0  0  0  0  0  0  0  0  0
   20.6680   -1.0175  -10.1923 C   0  0  2  0  0  0  0  0  0  0  0  0
   19.8806   -2.0245  -10.9905 C   0  0  0  0  0  0  0  0  0  0  0  0
   20.3094   -2.0631  -12.3769 N   0  0  0  0  0  0  0  0  0  0  0  0
   20.4876    0.4574  -10.6124 C   0  0  0  0  0  0  0  0  0  0  0  0
   19.2405    0.4628   -9.7341 C   0  0  0  0  0  0  0  0  0  0  0  0
   19.9766   -0.6324   -8.9237 C   0  0  0  0  0  0  0  0  0  0  0  0
   25.2863    0.2194   -9.2457 C   0  0  0  0  0  0  0  0  0  0  0  0
  1  2  3  0
  2  3  1  0
  3  4  2  0
  4  5  1  0
  5  6  1  0
  5  7  2  0
  7  8  1  0
  8  9  1  0
 10  9  1  6
 11 10  1  1
 11 12  1  0
 12 13  1  6
 14 11  1  6
 15 14  1  6
 16 15  1  6
  8 17  2  0
 17  3  1  0
 16 11  1  0
M  END
$$$$
