_rank2
     RDKit          3D

 17 18  0  0  0  0  0  0  0  0999 V2000
   28.2747   -0.4690   -7.2541 N   0  0  0  0  0  0  0  0  0  0  0  0
   27.5671   -0.2665   -8.3049 C   0  0  0  0  0  0  0  0  0  0  0  0
   26.7759   -0.0622   -9.4924 C   0  0  0  0  0  0  0  0  0  0  0  0
   27.1752    0.0316  -10.7602 C   0  0  0  0  0  0  0  0  0  0  0  0
   26.2961    0.0274  -11.7896 C   0  0  0  0  0  0  0  0  0  0  0  0
   26.7973    0.0042  -13.0991 F   0  0  0  0  0  0  0  0  0  0  0  0
   24.9170   -0.0597  -11.6097 C   0  0  0  0  0  0  0  0  0  0  0  0
   24.5202   -0.1519  -10.2271 C   0  0  0  0  0  0  0  0  0  0  0  0
   23.1051   -0.2210  -10.1844 O   0  0  0  0  0  0  0  0  0  0  0  0
   22.2964   -0.6430  -11.2275 C   0  0  0  0  0  0  0  0  0  0  0  0
   20.8636   -0.9668  -10.9434 C   0  0  2  0  0  0  0  0  0  0  0  0
   20.3471   -2.1768  -11.6788 C   0  0  0  0  0  0  0  0  0  0  0  0
   19.1503   -2.7122  -11.0556 N   0  0  0  0  0  0  0  0  0  0  0  0
   20.0589    0.3349  -11.1495 C   0  0  0  0  0  0  0  0  0  0  0  0
   19.1326   -0.1677  -10.0467 C   0  0  0  0  0  0  0  0  0  0  0  0
   20.3854   -0.9156   -9.5277 C   0  0  0  0  0  0  0  0  0  0  0  0
   25.3630   -0.1597   -9.2336 C   0  0  0  0  0  0  0  0  0  0  0  0
  1  2  3  0
  2  3  1  0
  3  4  2  0
  4  5  1  0
  5  6  1  0
  5  7  2  0
  7  8  1  0
  8  9  1  0
 10  9  1  6
 11 10  1  1
 11 12  1  0
 12 13  1  6
 14 11  1  6
 15 14  1  6
 16 15  1  6
  8 17  2  0
 17  3  1  0
 16 11  1  0
M  END
$$$$
