_rank3
     RDKit          3D

 17 18  0  0  0  0  0  0  0  0999 V2000
   28.1534    0.6592   -7.0050 N   0  0  0  0  0  0  0  0  0  0  0  0
   27.4800    0.3359   -8.0481 C   0  0  0  0  0  0  0  0  0  0  0  0
   26.7070   -0.0102   -9.2145 C   0  0  0  0  0  0  0  0  0  0  0  0
   27.1269   -0.4705  -10.3924 C   0  0  0  0  0  0  0  0  0  0  0  0
   26.2655   -0.9370  -11.3267 C   0  0  0  0  0  0  0  0  0  0  0  0
   26.7891   -1.5191  -12.4901 F   0  0  0  0  0  0  0  0  0  0  0  0
   24.8845   -0.9606  -11.1416 C   0  0  0  0  0  0  0  0  0  0  0  0
   24.4652   -0.4489   -9.8610 C   0  0  0  0  0  0  0  0  0  0  0  0
   23.0504   -0.5165   -9.8077 O   0  0  0  0  0  0  0  0  0  0  0  0
   22.2427   -1.0805  -10.7822 C   0  0  0  0  0  0  0  0  0  0  0  0
   20.7574   -1.0162  -10.6135 C   0  0  2  0  0  0  0  0  0  0  0  0
   19.9937   -1.9603  -11.5061 C   0  0  0  0  0  0  0  0  0  0  0  0
   20.8747   -2.9129  -12.1571 N   0  0  0  0  0  0  0  0  0  0  0  0
   20.3572    0.4717  -10.7157 C   0  0  0  0  0  0  0  0  0  0  0  0
   19.2413    0.1480   -9.7274 C   0  0  0  0  0  0  0  0  0  0  0  0
   20.1960   -0.9647   -9.2286 C   0  0  0  0  0  0  0  0  0  0  0  0
   25.2910   -0.0094   -8.9542 C   0  0  0  0  0  0  0  0  0  0  0  0
  1  2  3  0
  2  3  1  0
  3  4  2  0
  4  5  1  0
  5  6  1  0
  5  7  2  0
  7  8  1  0
  8  9  1  0
 10  9  1  6
 11 10  1  1
 11 12  1  0
 12 13  1  6
 14 11  1  6
 15 14  1  6
 16 15  1  6
  8 17  2  0
 17  3  1  0
 16 11  1  0
M  END
$$$$
