_rank5
     RDKit          3D

 17 18  0  0  0  0  0  0  0  0999 V2000
   27.9046    0.6818   -7.0441 N   0  0  0  0  0  0  0  0  0  0  0  0
   27.3459    0.4667   -8.1789 C   0  0  0  0  0  0  0  0  0  0  0  0
   26.7345    0.2399   -9.4644 C   0  0  0  0  0  0  0  0  0  0  0  0
   27.2780    0.3249  -10.6781 C   0  0  0  0  0  0  0  0  0  0  0  0
   26.6297   -0.1087  -11.7845 C   0  0  0  0  0  0  0  0  0  0  0  0
   27.3137   -0.1009  -13.0086 F   0  0  0  0  0  0  0  0  0  0  0  0
   25.3501   -0.6594  -11.7476 C   0  0  0  0  0  0  0  0  0  0  0  0
   24.7899   -0.7289  -10.4214 C   0  0  0  0  0  0  0  0  0  0  0  0
   23.4930   -1.2913  -10.5259 O   0  0  0  0  0  0  0  0  0  0  0  0
   22.5452   -0.9371  -11.4727 C   0  0  0  0  0  0  0  0  0  0  0  0
   21.0983   -0.9761  -11.0940 C   0  0  2  0  0  0  0  0  0  0  0  0
   20.5331    0.3579  -10.6788 C   0  0  0  0  0  0  0  0  0  0  0  0
   21.2742    1.4599  -11.2653 N   0  0  0  0  0  0  0  0  0  0  0  0
   20.9320   -2.1205  -10.0707 C   0  0  0  0  0  0  0  0  0  0  0  0
   19.5379   -2.3224  -10.6560 C   0  0  0  0  0  0  0  0  0  0  0  0
   20.1532   -1.7497  -11.9566 C   0  0  0  0  0  0  0  0  0  0  0  0
   25.4144   -0.3235   -9.3523 C   0  0  0  0  0  0  0  0  0  0  0  0
  1  2  3  0
  2  3  1  0
  3  4  2  0
  4  5  1  0
  5  6  1  0
  5  7  2  0
  7  8  1  0
  8  9  1  0
 10  9  1  6
 11 10  1  6
 11 12  1  0
 12 13  1  6
 14 11  1  6
 15 14  1  6
 16 15  1  6
  8 17  2  0
 17  3  1  0
 16 11  1  0
M  END
$$$$
