_rank17
     RDKit          3D

 17 18  0  0  0  0  0  0  0  0999 V2000
   28.8187    2.4955   -9.4094 N   0  0  0  0  0  0  0  0  0  0  0  0
   28.0580    1.4624   -9.4000 C   0  0  0  0  0  0  0  0  0  0  0  0
   27.2175    0.2916   -9.3723 C   0  0  0  0  0  0  0  0  0  0  0  0
   27.4685   -0.9086   -8.8505 C   0  0  0  0  0  0  0  0  0  0  0  0
   26.5048   -1.8513   -8.7278 C   0  0  0  0  0  0  0  0  0  0  0  0
   26.8144   -3.0430   -8.0567 F   0  0  0  0  0  0  0  0  0  0  0  0
   25.1903   -1.6519   -9.1452 C   0  0  0  0  0  0  0  0  0  0  0  0
   24.9563   -0.3471   -9.7111 C   0  0  0  0  0  0  0  0  0  0  0  0
   23.5958   -0.2807  -10.1034 O   0  0  0  0  0  0  0  0  0  0  0  0
   22.8254   -1.3648  -10.4924 C   0  0  0  0  0  0  0  0  0  0  0  0
   21.4091   -1.1286  -10.9133 C   0  0  2  0  0  0  0  0  0  0  0  0
   20.5504   -2.3671  -10.9115 C   0  0  0  0  0  0  0  0  0  0  0  0
   21.1304   -3.4203  -10.0980 N   0  0  0  0  0  0  0  0  0  0  0  0
   21.4599   -0.3520  -12.2470 C   0  0  0  0  0  0  0  0  0  0  0  0
   20.1666    0.3229  -11.8012 C   0  0  0  0  0  0  0  0  0  0  0  0
   20.6892    0.0625  -10.3669 C   0  0  0  0  0  0  0  0  0  0  0  0
   25.8777    0.5675   -9.8210 C   0  0  0  0  0  0  0  0  0  0  0  0
  1  2  3  0
  2  3  1  0
  3  4  2  0
  4  5  1  0
  5  6  1  0
  5  7  2  0
  7  8  1  0
  8  9  1  0
 10  9  1  6
 11 10  1  1
 11 12  1  0
 12 13  1  6
 14 11  1  6
 15 14  1  6
 16 15  1  6
  8 17  2  0
 17  3  1  0
 16 11  1  0
M  END
$$$$
