_rank1
     RDKit          3D

 17 18  0  0  0  0  0  0  0  0999 V2000
   18.7485    1.9246   -9.1459 N   0  0  0  0  0  0  0  0  0  0  0  0
   19.4587    0.9543   -9.5934 C   0  0  0  0  0  0  0  0  0  0  0  0
   20.2522   -0.1482  -10.0756 C   0  0  0  0  0  0  0  0  0  0  0  0
   19.8510   -1.2840  -10.6455 C   0  0  0  0  0  0  0  0  0  0  0  0
   20.7238   -2.1408  -11.2255 C   0  0  0  0  0  0  0  0  0  0  0  0
   20.2155   -3.2526  -11.9126 F   0  0  0  0  0  0  0  0  0  0  0  0
   22.0985   -1.9155  -11.2613 C   0  0  0  0  0  0  0  0  0  0  0  0
   22.4978   -0.6830  -10.6297 C   0  0  0  0  0  0  0  0  0  0  0  0
   23.9087   -0.5832  -10.7237 O   0  0  0  0  0  0  0  0  0  0  0  0
   24.7251    0.0537   -9.8029 C   0  0  0  0  0  0  0  0  0  0  0  0
   26.1958   -0.2198   -9.8328 C   0  0  2  0  0  0  0  0  0  0  0  0
   26.6107   -1.2519  -10.8497 C   0  0  0  0  0  0  0  0  0  0  0  0
   26.6725   -2.5812  -10.2696 N   0  0  0  0  0  0  0  0  0  0  0  0
   26.6304   -0.5019   -8.3782 C   0  0  0  0  0  0  0  0  0  0  0  0
   27.9672    0.1330   -8.7480 C   0  0  0  0  0  0  0  0  0  0  0  0
   27.1404    0.9380   -9.7807 C   0  0  0  0  0  0  0  0  0  0  0  0
   21.6606    0.1503  -10.0802 C   0  0  0  0  0  0  0  0  0  0  0  0
  1  2  3  0
  2  3  1  0
  3  4  2  0
  4  5  1  0
  5  6  1  0
  5  7  2  0
  7  8  1  0
  8  9  1  0
 10  9  1  6
 11 10  1  1
 11 12  1  0
 12 13  1  6
 14 11  1  6
 15 14  1  6
 16 15  1  6
  8 17  2  0
 17  3  1  0
 16 11  1  0
M  END
$$$$
