_rank10
     RDKit          3D

 17 18  0  0  0  0  0  0  0  0999 V2000
   27.8109    0.3505   -6.8446 N   0  0  0  0  0  0  0  0  0  0  0  0
   27.3400    0.2162   -8.0304 C   0  0  0  0  0  0  0  0  0  0  0  0
   26.8291    0.0499   -9.3680 C   0  0  0  0  0  0  0  0  0  0  0  0
   27.4884   -0.2535  -10.4857 C   0  0  0  0  0  0  0  0  0  0  0  0
   26.8437   -0.5691  -11.6334 C   0  0  0  0  0  0  0  0  0  0  0  0
   27.6023   -0.9973  -12.7324 F   0  0  0  0  0  0  0  0  0  0  0  0
   25.4547   -0.5884  -11.7433 C   0  0  0  0  0  0  0  0  0  0  0  0
   24.7743   -0.2481  -10.5190 C   0  0  0  0  0  0  0  0  0  0  0  0
   23.3799   -0.2922  -10.7696 O   0  0  0  0  0  0  0  0  0  0  0  0
   22.4823   -1.1335  -10.1317 C   0  0  0  0  0  0  0  0  0  0  0  0
   21.0586   -1.1507  -10.5917 C   0  0  2  0  0  0  0  0  0  0  0  0
   20.1825   -0.1216   -9.9248 C   0  0  0  0  0  0  0  0  0  0  0  0
   20.2920    1.1744  -10.5697 N   0  0  0  0  0  0  0  0  0  0  0  0
   20.5705   -2.6120  -10.4891 C   0  0  0  0  0  0  0  0  0  0  0  0
   19.6908   -2.3100  -11.6980 C   0  0  0  0  0  0  0  0  0  0  0  0
   20.7810   -1.2700  -12.0560 C   0  0  0  0  0  0  0  0  0  0  0  0
   25.3901    0.0452   -9.4090 C   0  0  0  0  0  0  0  0  0  0  0  0
  1  2  3  0
  2  3  1  0
  3  4  2  0
  4  5  1  0
  5  6  1  0
  5  7  2  0
  7  8  1  0
  8  9  1  0
 10  9  1  6
 11 10  1  6
 11 12  1  0
 12 13  1  6
 14 11  1  6
 15 14  1  6
 16 15  1  6
  8 17  2  0
 17  3  1  0
 16 11  1  0
M  END
$$$$
