_rank4
     RDKit          3D

 17 18  0  0  0  0  0  0  0  0999 V2000
   28.1873   -0.8515   -7.2717 N   0  0  0  0  0  0  0  0  0  0  0  0
   27.5303   -0.6032   -8.3453 C   0  0  0  0  0  0  0  0  0  0  0  0
   26.7790   -0.3077   -9.5394 C   0  0  0  0  0  0  0  0  0  0  0  0
   27.1854   -0.3123  -10.8085 C   0  0  0  0  0  0  0  0  0  0  0  0
   26.3145   -0.2044  -11.8392 C   0  0  0  0  0  0  0  0  0  0  0  0
   26.8027   -0.3418  -13.1465 F   0  0  0  0  0  0  0  0  0  0  0  0
   24.9394   -0.0667  -11.6599 C   0  0  0  0  0  0  0  0  0  0  0  0
   24.5360   -0.0578  -10.2761 C   0  0  0  0  0  0  0  0  0  0  0  0
   23.1280    0.0998  -10.2345 O   0  0  0  0  0  0  0  0  0  0  0  0
   22.2274   -0.8832   -9.8567 C   0  0  0  0  0  0  0  0  0  0  0  0
   20.9049   -0.9552  -10.5527 C   0  0  2  0  0  0  0  0  0  0  0  0
   20.9081   -1.8054  -11.7971 C   0  0  0  0  0  0  0  0  0  0  0  0
   20.6525   -3.2017  -11.4929 N   0  0  0  0  0  0  0  0  0  0  0  0
   20.4137    0.4972  -10.7364 C   0  0  0  0  0  0  0  0  0  0  0  0
   19.0001   -0.0552  -10.5841 C   0  0  0  0  0  0  0  0  0  0  0  0
   19.6730   -1.1577   -9.7297 C   0  0  0  0  0  0  0  0  0  0  0  0
   25.3691   -0.1727   -9.2810 C   0  0  0  0  0  0  0  0  0  0  0  0
  1  2  3  0
  2  3  1  0
  3  4  2  0
  4  5  1  0
  5  6  1  0
  5  7  2  0
  7  8  1  0
  8  9  1  0
 10  9  1  6
 11 10  1  1
 11 12  1  0
 12 13  1  6
 14 11  1  6
 15 14  1  6
 16 15  1  6
  8 17  2  0
 17  3  1  0
 16 11  1  0
M  END
$$$$
