_rank4
     RDKit          3D

 28 30  0  0  0  0  0  0  0  0999 V2000
   17.8617    1.5697   -8.4737 N   0  0  0  0  0  0  0  0  0  0  0  0
   18.5079    0.8321   -9.0881 C   0  0  0  0  0  0  0  0  0  0  0  0
   19.3063   -0.0681   -9.8702 C   0  0  0  0  0  0  0  0  0  0  0  0
   18.8824   -1.3712  -10.0290 C   0  0  0  0  0  0  0  0  0  0  0  0
   19.6676   -2.2151  -10.7848 C   0  0  0  0  0  0  0  0  0  0  0  0
   19.3000   -3.5119  -10.9764 F   0  0  0  0  0  0  0  0  0  0  0  0
   20.8496   -1.8113  -11.3829 C   0  0  0  0  0  0  0  0  0  0  0  0
   21.2655   -0.5089  -11.2193 C   0  0  0  0  0  0  0  0  0  0  0  0
   22.4456   -0.0742  -11.8061 O   0  0  0  0  0  0  0  0  0  0  0  0
   23.6239   -0.2912  -11.0668 C   0  0  0  0  0  0  0  0  0  0  0  0
   23.6218   -0.7790   -9.7883 C   0  0  0  0  0  0  0  0  0  0  0  0
   24.7633   -0.9909   -9.0698 C   0  0  0  0  0  0  0  0  0  0  0  0
   25.9913   -0.6895   -9.6850 C   0  0  0  0  0  0  0  0  0  0  0  0
   27.4062   -1.0450   -8.7332 S   0  0  1  0  0  6  0  0  0  0  0  0
   27.0934   -2.1317   -7.7270 O   0  0  0  0  0  0  0  0  0  0  0  0
   28.4836   -1.6229   -9.6176 O   0  0  0  0  0  0  0  0  0  0  0  0
   28.0823    0.3184   -7.8695 C   0  0  1  0  0  0  0  0  0  0  0  0
   28.1359    1.4938   -8.5325 F   0  0  0  0  0  0  0  0  0  0  0  0
   27.3380    0.5549   -6.7013 F   0  0  0  0  0  0  0  0  0  0  0  0
   26.0539   -0.1924  -10.9748 C   0  0  0  0  0  0  0  0  0  0  0  0
   24.8673   -0.0020  -11.6448 C   0  0  0  0  0  0  0  0  0  0  0  0
   25.1619    0.5367  -12.9905 C   0  0  0  0  0  0  0  0  0  0  0  0
   26.5804    0.0855  -13.2298 C   0  0  1  0  0  0  0  0  0  0  0  0
   26.5464   -1.2566  -13.5350 F   0  0  0  0  0  0  0  0  0  0  0  0
   27.2461    0.8348  -14.1539 F   0  0  0  0  0  0  0  0  0  0  0  0
   27.1931    0.2442  -11.8261 C   0  0  1  0  0  0  0  0  0  0  0  0
   27.5274    1.5756  -11.5953 O   0  0  0  0  0  0  0  0  0  0  0  0
   20.4808    0.3494  -10.4592 C   0  0  0  0  0  0  0  0  0  0  0  0
  1  2  3  0
  2  3  1  0
  3  4  2  0
  4  5  1  0
  5  6  1  0
  5  7  2  0
  7  8  1  0
  8  9  1  0
  9 10  1  0
 10 11  2  0
 11 12  1  0
 12 13  2  0
 14 13  1  6
 14 15  2  0
 14 16  2  0
 14 17  1  0
 17 18  1  6
 17 19  1  0
 13 20  1  0
 20 21  2  0
 22 21  1  6
 22 23  1  0
 23 24  1  6
 23 25  1  0
 23 26  1  0
 26 27  1  1
  8 28  2  0
 28  3  1  0
 21 10  1  0
 26 20  1  0
M  END
$$$$
