_rank11
     RDKit          3D

 28 30  0  0  0  0  0  0  0  0999 V2000
   18.1648    1.5780   -8.3098 N   0  0  0  0  0  0  0  0  0  0  0  0
   18.6885    0.8088   -8.9976 C   0  0  0  0  0  0  0  0  0  0  0  0
   19.3388   -0.1613   -9.8315 C   0  0  0  0  0  0  0  0  0  0  0  0
   18.7414   -1.3909  -10.0168 C   0  0  0  0  0  0  0  0  0  0  0  0
   19.3867   -2.3044  -10.8223 C   0  0  0  0  0  0  0  0  0  0  0  0
   18.8450   -3.5340  -11.0418 F   0  0  0  0  0  0  0  0  0  0  0  0
   20.5952   -2.0397  -11.4446 C   0  0  0  0  0  0  0  0  0  0  0  0
   21.1848   -0.8099  -11.2544 C   0  0  0  0  0  0  0  0  0  0  0  0
   22.3958   -0.5147  -11.8645 O   0  0  0  0  0  0  0  0  0  0  0  0
   23.5488   -0.6971  -11.0774 C   0  0  0  0  0  0  0  0  0  0  0  0
   23.5232   -1.2924   -9.8455 C   0  0  0  0  0  0  0  0  0  0  0  0
   24.6402   -1.4710   -9.0810 C   0  0  0  0  0  0  0  0  0  0  0  0
   25.8673   -1.0173   -9.5961 C   0  0  0  0  0  0  0  0  0  0  0  0
   27.2569   -1.3361   -8.5951 S   0  0  1  0  0  6  0  0  0  0  0  0
   26.9012   -2.3418   -7.5212 O   0  0  0  0  0  0  0  0  0  0  0  0
   28.3355   -1.9989   -9.4162 O   0  0  0  0  0  0  0  0  0  0  0  0
   27.9498    0.0695   -7.8166 C   0  0  1  0  0  0  0  0  0  0  0  0
   27.0971    1.0601   -7.4766 F   0  0  0  0  0  0  0  0  0  0  0  0
   28.6009   -0.3178   -6.6331 F   0  0  0  0  0  0  0  0  0  0  0  0
   25.9530   -0.4069  -10.8349 C   0  0  0  0  0  0  0  0  0  0  0  0
   24.7905   -0.2575  -11.5557 C   0  0  0  0  0  0  0  0  0  0  0  0
   25.1061    0.4181  -12.8331 C   0  0  0  0  0  0  0  0  0  0  0  0
   26.5690    0.1078  -13.0247 C   0  0  1  0  0  0  0  0  0  0  0  0
   26.6678   -1.2011  -13.4403 F   0  0  0  0  0  0  0  0  0  0  0  0
   27.2137    0.9866  -13.8436 F   0  0  0  0  0  0  0  0  0  0  0  0
   27.0923    0.1942  -11.5791 C   0  0  1  0  0  0  0  0  0  0  0  0
   27.2971    1.5236  -11.2208 O   0  0  0  0  0  0  0  0  0  0  0  0
   20.5420    0.1176  -10.4441 C   0  0  0  0  0  0  0  0  0  0  0  0
  1  2  3  0
  2  3  1  0
  3  4  2  0
  4  5  1  0
  5  6  1  0
  5  7  2  0
  7  8  1  0
  8  9  1  0
  9 10  1  0
 10 11  2  0
 11 12  1  0
 12 13  2  0
 14 13  1  6
 14 15  2  0
 14 16  2  0
 14 17  1  0
 17 18  1  1
 17 19  1  0
 13 20  1  0
 20 21  2  0
 22 21  1  6
 22 23  1  0
 23 24  1  6
 23 25  1  0
 23 26  1  0
 26 27  1  1
  8 28  2  0
 28  3  1  0
 21 10  1  0
 26 20  1  0
M  END
$$$$
