_rank19
     RDKit          3D

 28 30  0  0  0  0  0  0  0  0999 V2000
   16.6404    0.5180  -11.9218 N   0  0  0  0  0  0  0  0  0  0  0  0
   17.6788    0.1420  -11.5762 C   0  0  0  0  0  0  0  0  0  0  0  0
   18.9607   -0.3181  -11.1239 C   0  0  0  0  0  0  0  0  0  0  0  0
   19.0199   -1.4090  -10.2816 C   0  0  0  0  0  0  0  0  0  0  0  0
   20.2633   -1.8305   -9.8620 C   0  0  0  0  0  0  0  0  0  0  0  0
   20.3840   -2.9015   -9.0301 F   0  0  0  0  0  0  0  0  0  0  0  0
   21.4397   -1.2100  -10.2478 C   0  0  0  0  0  0  0  0  0  0  0  0
   21.3717   -0.1218  -11.0888 C   0  0  0  0  0  0  0  0  0  0  0  0
   22.5330    0.5214  -11.4932 O   0  0  0  0  0  0  0  0  0  0  0  0
   23.7216    0.1160  -10.8566 C   0  0  0  0  0  0  0  0  0  0  0  0
   23.7387   -0.5121   -9.6410 C   0  0  0  0  0  0  0  0  0  0  0  0
   24.8901   -0.9067   -9.0223 C   0  0  0  0  0  0  0  0  0  0  0  0
   26.1078   -0.6494   -9.6765 C   0  0  0  0  0  0  0  0  0  0  0  0
   27.5292   -1.2373   -8.8590 S   0  0  1  0  0  6  0  0  0  0  0  0
   27.2502   -2.5931   -8.2464 O   0  0  0  0  0  0  0  0  0  0  0  0
   28.6320   -1.4752   -9.8611 O   0  0  0  0  0  0  0  0  0  0  0  0
   28.1503   -0.1896   -7.6026 C   0  0  1  0  0  0  0  0  0  0  0  0
   29.3843   -0.4695   -7.1306 F   0  0  0  0  0  0  0  0  0  0  0  0
   28.1947    1.1349   -8.0699 F   0  0  0  0  0  0  0  0  0  0  0  0
   26.1513   -0.0163  -10.9061 C   0  0  0  0  0  0  0  0  0  0  0  0
   24.9555    0.3556  -11.4763 C   0  0  0  0  0  0  0  0  0  0  0  0
   25.2306    1.0152  -12.7713 C   0  0  0  0  0  0  0  0  0  0  0  0
   26.5845    0.4679  -13.1461 C   0  0  1  0  0  0  0  0  0  0  0  0
   26.4050   -0.8222  -13.5924 F   0  0  0  0  0  0  0  0  0  0  0  0
   27.2707    1.2543  -14.0232 F   0  0  0  0  0  0  0  0  0  0  0  0
   27.2816    0.4097  -11.7744 C   0  0  1  0  0  0  0  0  0  0  0  0
   27.7547    1.6704  -11.4218 O   0  0  0  0  0  0  0  0  0  0  0  0
   20.1229    0.3106  -11.5172 C   0  0  0  0  0  0  0  0  0  0  0  0
  1  2  3  0
  2  3  1  0
  3  4  2  0
  4  5  1  0
  5  6  1  0
  5  7  2  0
  7  8  1  0
  8  9  1  0
  9 10  1  0
 10 11  2  0
 11 12  1  0
 12 13  2  0
 14 13  1  6
 14 15  2  0
 14 16  2  0
 14 17  1  0
 17 18  1  6
 17 19  1  0
 13 20  1  0
 20 21  2  0
 22 21  1  6
 22 23  1  0
 23 24  1  6
 23 25  1  0
 23 26  1  0
 26 27  1  1
  8 28  2  0
 28  3  1  0
 21 10  1  0
 26 20  1  0
M  END
$$$$
