_rank14
     RDKit          3D

 28 30  0  0  0  0  0  0  0  0999 V2000
   18.2743    1.4359   -8.3208 N   0  0  0  0  0  0  0  0  0  0  0  0
   18.7926    0.6686   -9.0148 C   0  0  0  0  0  0  0  0  0  0  0  0
   19.4539   -0.2854   -9.8587 C   0  0  0  0  0  0  0  0  0  0  0  0
   18.8979   -1.5382  -10.0143 C   0  0  0  0  0  0  0  0  0  0  0  0
   19.5529   -2.4355  -10.8302 C   0  0  0  0  0  0  0  0  0  0  0  0
   19.0516   -3.6868  -11.0216 F   0  0  0  0  0  0  0  0  0  0  0  0
   20.7316   -2.1325  -11.4910 C   0  0  0  0  0  0  0  0  0  0  0  0
   21.2799   -0.8796  -11.3303 C   0  0  0  0  0  0  0  0  0  0  0  0
   22.4603   -0.5459  -11.9793 O   0  0  0  0  0  0  0  0  0  0  0  0
   23.6344   -0.6090  -11.2048 C   0  0  0  0  0  0  0  0  0  0  0  0
   23.6460   -1.0290   -9.9025 C   0  0  0  0  0  0  0  0  0  0  0  0
   24.7835   -1.0916   -9.1500 C   0  0  0  0  0  0  0  0  0  0  0  0
   25.9923   -0.7036   -9.7545 C   0  0  0  0  0  0  0  0  0  0  0  0
   27.4097   -0.8704   -8.7556 S   0  0  1  0  0  6  0  0  0  0  0  0
   27.2617   -2.0692   -7.8434 O   0  0  0  0  0  0  0  0  0  0  0  0
   28.6089   -1.1759   -9.6191 O   0  0  0  0  0  0  0  0  0  0  0  0
   27.7898    0.5224   -7.7669 C   0  0  1  0  0  0  0  0  0  0  0  0
   26.7763    1.0570   -7.0520 F   0  0  0  0  0  0  0  0  0  0  0  0
   28.7940    0.1870   -6.8429 F   0  0  0  0  0  0  0  0  0  0  0  0
   26.0403   -0.2691  -11.0673 C   0  0  0  0  0  0  0  0  0  0  0  0
   24.8588   -0.2297  -11.7713 C   0  0  0  0  0  0  0  0  0  0  0  0
   25.1351    0.2658  -13.1373 C   0  0  0  0  0  0  0  0  0  0  0  0
   26.5962   -0.0564  -13.3223 C   0  0  1  0  0  0  0  0  0  0  0  0
   26.6996   -1.4093  -13.5563 F   0  0  0  0  0  0  0  0  0  0  0  0
   27.2104    0.7062  -14.2709 F   0  0  0  0  0  0  0  0  0  0  0  0
   27.1540    0.2326  -11.9165 C   0  0  1  0  0  0  0  0  0  0  0  0
   27.3524    1.6002  -11.7500 O   0  0  0  0  0  0  0  0  0  0  0  0
   20.6270    0.0318  -10.5098 C   0  0  0  0  0  0  0  0  0  0  0  0
  1  2  3  0
  2  3  1  0
  3  4  2  0
  4  5  1  0
  5  6  1  0
  5  7  2  0
  7  8  1  0
  8  9  1  0
  9 10  1  0
 10 11  2  0
 11 12  1  0
 12 13  2  0
 14 13  1  6
 14 15  2  0
 14 16  2  0
 14 17  1  0
 17 18  1  1
 17 19  1  0
 13 20  1  0
 20 21  2  0
 22 21  1  6
 22 23  1  0
 23 24  1  6
 23 25  1  0
 23 26  1  0
 26 27  1  6
  8 28  2  0
 28  3  1  0
 21 10  1  0
 26 20  1  0
M  END
$$$$
