_rank1
     RDKit          3D

 28 30  0  0  0  0  0  0  0  0999 V2000
   17.3478    1.4246   -8.7015 N   0  0  0  0  0  0  0  0  0  0  0  0
   18.1317    0.7587   -9.2316 C   0  0  0  0  0  0  0  0  0  0  0  0
   19.1161   -0.0466   -9.8965 C   0  0  0  0  0  0  0  0  0  0  0  0
   18.8693   -1.3922  -10.0742 C   0  0  0  0  0  0  0  0  0  0  0  0
   19.8310   -2.1430  -10.7156 C   0  0  0  0  0  0  0  0  0  0  0  0
   19.6428   -3.4759  -10.9194 F   0  0  0  0  0  0  0  0  0  0  0  0
   21.0193   -1.6064  -11.1824 C   0  0  0  0  0  0  0  0  0  0  0  0
   21.2577   -0.2624  -11.0010 C   0  0  0  0  0  0  0  0  0  0  0  0
   22.4391    0.3046  -11.4576 O   0  0  0  0  0  0  0  0  0  0  0  0
   23.6000   -0.0015  -10.7223 C   0  0  0  0  0  0  0  0  0  0  0  0
   23.5653   -0.4878   -9.4437 C   0  0  0  0  0  0  0  0  0  0  0  0
   24.6899   -0.7861   -8.7292 C   0  0  0  0  0  0  0  0  0  0  0  0
   25.9350   -0.5791   -9.3487 C   0  0  0  0  0  0  0  0  0  0  0  0
   27.3221   -1.0414   -8.4018 S   0  0  1  0  0  6  0  0  0  0  0  0
   26.8739   -1.7065   -7.1181 O   0  0  0  0  0  0  0  0  0  0  0  0
   28.1138   -2.0944   -9.1376 O   0  0  0  0  0  0  0  0  0  0  0  0
   28.4078    0.2668   -7.9869 C   0  0  1  0  0  0  0  0  0  0  0  0
   29.4391    0.4930   -8.8291 F   0  0  0  0  0  0  0  0  0  0  0  0
   27.6885    1.4713   -7.9070 F   0  0  0  0  0  0  0  0  0  0  0  0
   26.0308   -0.0882  -10.6389 C   0  0  0  0  0  0  0  0  0  0  0  0
   24.8599    0.1921  -11.3048 C   0  0  0  0  0  0  0  0  0  0  0  0
   25.1899    0.7067  -12.6517 C   0  0  0  0  0  0  0  0  0  0  0  0
   26.5691    0.1488  -12.8958 C   0  0  1  0  0  0  0  0  0  0  0  0
   26.4318   -1.1869  -13.2005 F   0  0  0  0  0  0  0  0  0  0  0  0
   27.2866    0.8452  -13.8225 F   0  0  0  0  0  0  0  0  0  0  0  0
   27.1970    0.2603  -11.4943 C   0  0  1  0  0  0  0  0  0  0  0  0
   27.6326    1.5623  -11.2650 O   0  0  0  0  0  0  0  0  0  0  0  0
   20.2943    0.5027  -10.3555 C   0  0  0  0  0  0  0  0  0  0  0  0
  1  2  3  0
  2  3  1  0
  3  4  2  0
  4  5  1  0
  5  6  1  0
  5  7  2  0
  7  8  1  0
  8  9  1  0
  9 10  1  0
 10 11  2  0
 11 12  1  0
 12 13  2  0
 14 13  1  6
 14 15  2  0
 14 16  2  0
 14 17  1  0
 17 18  1  6
 17 19  1  0
 13 20  1  0
 20 21  2  0
 22 21  1  6
 22 23  1  0
 23 24  1  6
 23 25  1  0
 23 26  1  0
 26 27  1  1
  8 28  2  0
 28  3  1  0
 21 10  1  0
 26 20  1  0
M  END
$$$$
