_rank9
     RDKit          3D

 28 30  0  0  0  0  0  0  0  0999 V2000
   18.4279    2.1694   -8.6101 N   0  0  0  0  0  0  0  0  0  0  0  0
   18.9258    1.3053   -9.1969 C   0  0  0  0  0  0  0  0  0  0  0  0
   19.5648    0.2465   -9.9251 C   0  0  0  0  0  0  0  0  0  0  0  0
   18.9600   -0.9925   -9.9710 C   0  0  0  0  0  0  0  0  0  0  0  0
   19.5945   -1.9919  -10.6770 C   0  0  0  0  0  0  0  0  0  0  0  0
   19.0451   -3.2351  -10.7573 F   0  0  0  0  0  0  0  0  0  0  0  0
   20.7993   -1.8033  -11.3333 C   0  0  0  0  0  0  0  0  0  0  0  0
   21.3963   -0.5635  -11.2825 C   0  0  0  0  0  0  0  0  0  0  0  0
   22.6037   -0.3433  -11.9300 O   0  0  0  0  0  0  0  0  0  0  0  0
   23.7639   -0.4784  -11.1440 C   0  0  0  0  0  0  0  0  0  0  0  0
   23.7577   -1.0437   -9.8977 C   0  0  0  0  0  0  0  0  0  0  0  0
   24.8817   -1.1764   -9.1342 C   0  0  0  0  0  0  0  0  0  0  0  0
   26.0955   -0.7061   -9.6659 C   0  0  0  0  0  0  0  0  0  0  0  0
   27.4963   -0.9666   -8.6637 S   0  0  1  0  0  6  0  0  0  0  0  0
   27.1944   -2.0154   -7.6150 O   0  0  0  0  0  0  0  0  0  0  0  0
   28.6156   -1.5468   -9.4929 O   0  0  0  0  0  0  0  0  0  0  0  0
   28.1026    0.4587   -7.8496 C   0  0  1  0  0  0  0  0  0  0  0  0
   27.2082    1.1846   -7.1446 F   0  0  0  0  0  0  0  0  0  0  0  0
   29.1166    0.0934   -6.9480 F   0  0  0  0  0  0  0  0  0  0  0  0
   26.1613   -0.1244  -10.9197 C   0  0  0  0  0  0  0  0  0  0  0  0
   24.9928   -0.0209  -11.6386 C   0  0  0  0  0  0  0  0  0  0  0  0
   25.2868    0.6305  -12.9336 C   0  0  0  0  0  0  0  0  0  0  0  0
   26.7560    0.3509  -13.1242 C   0  0  1  0  0  0  0  0  0  0  0  0
   26.8848   -0.9651  -13.5081 F   0  0  0  0  0  0  0  0  0  0  0  0
   27.3759    1.2246  -13.9674 F   0  0  0  0  0  0  0  0  0  0  0  0
   27.2828    0.4855  -11.6836 C   0  0  1  0  0  0  0  0  0  0  0  0
   27.4567    1.8278  -11.3589 O   0  0  0  0  0  0  0  0  0  0  0  0
   20.7644    0.4503  -10.5733 C   0  0  0  0  0  0  0  0  0  0  0  0
  1  2  3  0
  2  3  1  0
  3  4  2  0
  4  5  1  0
  5  6  1  0
  5  7  2  0
  7  8  1  0
  8  9  1  0
  9 10  1  0
 10 11  2  0
 11 12  1  0
 12 13  2  0
 14 13  1  6
 14 15  2  0
 14 16  2  0
 14 17  1  0
 17 18  1  1
 17 19  1  0
 13 20  1  0
 20 21  2  0
 22 21  1  6
 22 23  1  0
 23 24  1  6
 23 25  1  0
 23 26  1  0
 26 27  1  1
  8 28  2  0
 28  3  1  0
 21 10  1  0
 26 20  1  0
M  END
$$$$
