_rank6
     RDKit          3D

 28 30  0  0  0  0  0  0  0  0999 V2000
   18.3072   -4.0081  -10.7022 N   0  0  0  0  0  0  0  0  0  0  0  0
   18.7886   -2.9566  -10.6629 C   0  0  0  0  0  0  0  0  0  0  0  0
   19.3668   -1.6436  -10.6279 C   0  0  0  0  0  0  0  0  0  0  0  0
   18.7083   -0.6416   -9.9458 C   0  0  0  0  0  0  0  0  0  0  0  0
   19.2851    0.6102   -9.9277 C   0  0  0  0  0  0  0  0  0  0  0  0
   18.6811    1.6383   -9.2706 F   0  0  0  0  0  0  0  0  0  0  0  0
   20.4837    0.8974  -10.5591 C   0  0  0  0  0  0  0  0  0  0  0  0
   21.1345   -0.1086  -11.2377 C   0  0  0  0  0  0  0  0  0  0  0  0
   22.3374    0.1479  -11.8805 O   0  0  0  0  0  0  0  0  0  0  0  0
   23.5039   -0.0462  -11.1163 C   0  0  0  0  0  0  0  0  0  0  0  0
   23.4861   -0.5536   -9.8456 C   0  0  0  0  0  0  0  0  0  0  0  0
   24.6161   -0.7434   -9.1032 C   0  0  0  0  0  0  0  0  0  0  0  0
   25.8488   -0.3969   -9.6842 C   0  0  0  0  0  0  0  0  0  0  0  0
   27.2508   -0.7259   -8.7041 S   0  0  1  0  0  6  0  0  0  0  0  0
   26.9709   -1.8863   -7.7735 O   0  0  0  0  0  0  0  0  0  0  0  0
   28.3889   -1.1873   -9.5808 O   0  0  0  0  0  0  0  0  0  0  0  0
   27.8159    0.6209   -7.7402 C   0  0  1  0  0  0  0  0  0  0  0  0
   27.1961    0.8266   -6.5581 F   0  0  0  0  0  0  0  0  0  0  0  0
   29.1807    0.4551   -7.4497 F   0  0  0  0  0  0  0  0  0  0  0  0
   25.9271    0.1217  -10.9646 C   0  0  0  0  0  0  0  0  0  0  0  0
   24.7516    0.2879  -11.6600 C   0  0  0  0  0  0  0  0  0  0  0  0
   25.0618    0.8557  -12.9902 C   0  0  0  0  0  0  0  0  0  0  0  0
   26.4982    0.4497  -13.2020 C   0  0  1  0  0  0  0  0  0  0  0  0
   26.5109   -0.8879  -13.5277 F   0  0  0  0  0  0  0  0  0  0  0  0
   27.1630    1.2323  -14.0987 F   0  0  0  0  0  0  0  0  0  0  0  0
   27.0727    0.6044  -11.7818 C   0  0  1  0  0  0  0  0  0  0  0  0
   27.3622    1.9412  -11.5234 O   0  0  0  0  0  0  0  0  0  0  0  0
   20.5611   -1.3738  -11.2617 C   0  0  0  0  0  0  0  0  0  0  0  0
  1  2  3  0
  2  3  1  0
  3  4  2  0
  4  5  1  0
  5  6  1  0
  5  7  2  0
  7  8  1  0
  8  9  1  0
  9 10  1  0
 10 11  2  0
 11 12  1  0
 12 13  2  0
 14 13  1  6
 14 15  2  0
 14 16  2  0
 14 17  1  0
 17 18  1  1
 17 19  1  0
 13 20  1  0
 20 21  2  0
 22 21  1  6
 22 23  1  0
 23 24  1  6
 23 25  1  0
 23 26  1  0
 26 27  1  1
  8 28  2  0
 28  3  1  0
 21 10  1  0
 26 20  1  0
M  END
$$$$
