_rank13
     RDKit          3D

 28 30  0  0  0  0  0  0  0  0999 V2000
   17.9741   -3.8942  -10.6953 N   0  0  0  0  0  0  0  0  0  0  0  0
   18.5729   -2.9042  -10.6780 C   0  0  0  0  0  0  0  0  0  0  0  0
   19.2985   -1.6661  -10.6719 C   0  0  0  0  0  0  0  0  0  0  0  0
   18.7800   -0.5912   -9.9799 C   0  0  0  0  0  0  0  0  0  0  0  0
   19.4966    0.5861   -9.9899 C   0  0  0  0  0  0  0  0  0  0  0  0
   19.0345    1.6805   -9.3248 F   0  0  0  0  0  0  0  0  0  0  0  0
   20.7008    0.7302  -10.6586 C   0  0  0  0  0  0  0  0  0  0  0  0
   21.2114   -0.3476  -11.3469 C   0  0  0  0  0  0  0  0  0  0  0  0
   22.4158   -0.2345  -12.0268 O   0  0  0  0  0  0  0  0  0  0  0  0
   23.5826   -0.3590  -11.2486 C   0  0  0  0  0  0  0  0  0  0  0  0
   23.5925   -0.9368  -10.0082 C   0  0  0  0  0  0  0  0  0  0  0  0
   24.7229   -1.0592   -9.2524 C   0  0  0  0  0  0  0  0  0  0  0  0
   25.9259   -0.5642   -9.7861 C   0  0  0  0  0  0  0  0  0  0  0  0
   27.3364   -0.8124   -8.7945 S   0  0  1  0  0  6  0  0  0  0  0  0
   26.9866   -1.6810   -7.6053 O   0  0  0  0  0  0  0  0  0  0  0  0
   28.3705   -1.5953   -9.5657 O   0  0  0  0  0  0  0  0  0  0  0  0
   28.0915    0.6490   -8.1979 C   0  0  1  0  0  0  0  0  0  0  0  0
   27.3509    1.4271   -7.3793 F   0  0  0  0  0  0  0  0  0  0  0  0
   29.2587    0.3223   -7.4868 F   0  0  0  0  0  0  0  0  0  0  0  0
   25.9753    0.0310  -11.0342 C   0  0  0  0  0  0  0  0  0  0  0  0
   24.8011    0.1230  -11.7455 C   0  0  0  0  0  0  0  0  0  0  0  0
   25.0773    0.7921  -13.0354 C   0  0  0  0  0  0  0  0  0  0  0  0
   26.5496    0.5379  -13.2371 C   0  0  1  0  0  0  0  0  0  0  0  0
   26.6971   -0.7719  -13.6350 F   0  0  0  0  0  0  0  0  0  0  0  0
   27.1507    1.4298  -14.0748 F   0  0  0  0  0  0  0  0  0  0  0  0
   27.0824    0.6663  -11.7982 C   0  0  1  0  0  0  0  0  0  0  0  0
   27.2369    2.0080  -11.4608 O   0  0  0  0  0  0  0  0  0  0  0  0
   20.4962   -1.5387  -11.3426 C   0  0  0  0  0  0  0  0  0  0  0  0
  1  2  3  0
  2  3  1  0
  3  4  2  0
  4  5  1  0
  5  6  1  0
  5  7  2  0
  7  8  1  0
  8  9  1  0
  9 10  1  0
 10 11  2  0
 11 12  1  0
 12 13  2  0
 14 13  1  6
 14 15  2  0
 14 16  2  0
 14 17  1  0
 17 18  1  1
 17 19  1  0
 13 20  1  0
 20 21  2  0
 22 21  1  6
 22 23  1  0
 23 24  1  6
 23 25  1  0
 23 26  1  0
 26 27  1  1
  8 28  2  0
 28  3  1  0
 21 10  1  0
 26 20  1  0
M  END
$$$$
