_rank2
     RDKit          3D

 28 30  0  0  0  0  0  0  0  0999 V2000
   18.1755    1.9023   -8.6392 N   0  0  0  0  0  0  0  0  0  0  0  0
   18.7155    1.0759   -9.2430 C   0  0  0  0  0  0  0  0  0  0  0  0
   19.3673    0.0347   -9.9849 C   0  0  0  0  0  0  0  0  0  0  0  0
   18.7697   -1.2063  -10.0607 C   0  0  0  0  0  0  0  0  0  0  0  0
   19.4165   -2.1886  -10.7794 C   0  0  0  0  0  0  0  0  0  0  0  0
   18.8748   -3.4328  -10.8892 F   0  0  0  0  0  0  0  0  0  0  0  0
   20.6268   -1.9811  -11.4198 C   0  0  0  0  0  0  0  0  0  0  0  0
   21.2166   -0.7394  -11.3391 C   0  0  0  0  0  0  0  0  0  0  0  0
   22.4293   -0.5005  -11.9701 O   0  0  0  0  0  0  0  0  0  0  0  0
   23.5740   -0.5401  -11.1514 C   0  0  0  0  0  0  0  0  0  0  0  0
   23.5581   -1.0243   -9.8717 C   0  0  0  0  0  0  0  0  0  0  0  0
   24.6672   -1.0643   -9.0764 C   0  0  0  0  0  0  0  0  0  0  0  0
   25.8753   -0.5822   -9.6105 C   0  0  0  0  0  0  0  0  0  0  0  0
   27.2598   -0.7237   -8.5627 S   0  0  1  0  0  6  0  0  0  0  0  0
   26.9229   -1.6002   -7.3756 O   0  0  0  0  0  0  0  0  0  0  0  0
   28.3729   -1.4440   -9.2832 O   0  0  0  0  0  0  0  0  0  0  0  0
   27.8920    0.7920   -7.9585 C   0  0  1  0  0  0  0  0  0  0  0  0
   28.6405    0.7357   -6.8357 F   0  0  0  0  0  0  0  0  0  0  0  0
   28.6950    1.3951   -8.9414 F   0  0  0  0  0  0  0  0  0  0  0  0
   25.9503   -0.0798  -10.8975 C   0  0  0  0  0  0  0  0  0  0  0  0
   24.7967   -0.0678  -11.6473 C   0  0  0  0  0  0  0  0  0  0  0  0
   25.0981    0.5105  -12.9750 C   0  0  0  0  0  0  0  0  0  0  0  0
   26.5809    0.2764  -13.1145 C   0  0  1  0  0  0  0  0  0  0  0  0
   26.7680   -1.0554  -13.4093 F   0  0  0  0  0  0  0  0  0  0  0  0
   27.1884    1.1178  -13.9985 F   0  0  0  0  0  0  0  0  0  0  0  0
   27.0667    0.5230  -11.6743 C   0  0  1  0  0  0  0  0  0  0  0  0
   27.1825    1.8891  -11.4335 O   0  0  0  0  0  0  0  0  0  0  0  0
   20.5722    0.2572  -10.6169 C   0  0  0  0  0  0  0  0  0  0  0  0
  1  2  3  0
  2  3  1  0
  3  4  2  0
  4  5  1  0
  5  6  1  0
  5  7  2  0
  7  8  1  0
  8  9  1  0
  9 10  1  0
 10 11  2  0
 11 12  1  0
 12 13  2  0
 14 13  1  6
 14 15  2  0
 14 16  2  0
 14 17  1  0
 17 18  1  1
 17 19  1  0
 13 20  1  0
 20 21  2  0
 22 21  1  6
 22 23  1  0
 23 24  1  6
 23 25  1  0
 23 26  1  0
 26 27  1  1
  8 28  2  0
 28  3  1  0
 21 10  1  0
 26 20  1  0
M  END
$$$$
