_rank7
     RDKit          3D

 28 30  0  0  0  0  0  0  0  0999 V2000
   18.5203    2.2053   -8.4859 N   0  0  0  0  0  0  0  0  0  0  0  0
   18.9425    1.3330   -9.1182 C   0  0  0  0  0  0  0  0  0  0  0  0
   19.4887    0.2547   -9.8919 C   0  0  0  0  0  0  0  0  0  0  0  0
   18.7779   -0.9234   -9.9909 C   0  0  0  0  0  0  0  0  0  0  0  0
   19.3248   -1.9432  -10.7399 C   0  0  0  0  0  0  0  0  0  0  0  0
   18.6691   -3.1288  -10.8736 F   0  0  0  0  0  0  0  0  0  0  0  0
   20.5436   -1.8326  -11.3882 C   0  0  0  0  0  0  0  0  0  0  0  0
   21.2466   -0.6532  -11.2842 C   0  0  0  0  0  0  0  0  0  0  0  0
   22.4707   -0.5118  -11.9223 O   0  0  0  0  0  0  0  0  0  0  0  0
   23.6115   -0.5786  -11.0999 C   0  0  0  0  0  0  0  0  0  0  0  0
   23.6089   -1.1782   -9.8698 C   0  0  0  0  0  0  0  0  0  0  0  0
   24.7142   -1.2447   -9.0710 C   0  0  0  0  0  0  0  0  0  0  0  0
   25.9038   -0.6660   -9.5474 C   0  0  0  0  0  0  0  0  0  0  0  0
   27.2871   -0.8452   -8.5039 S   0  0  1  0  0  6  0  0  0  0  0  0
   27.0413   -1.9555   -7.5050 O   0  0  0  0  0  0  0  0  0  0  0  0
   28.4797   -1.2959   -9.3110 O   0  0  0  0  0  0  0  0  0  0  0  0
   27.7403    0.5940   -7.6176 C   0  0  1  0  0  0  0  0  0  0  0  0
   28.1056    1.6696   -8.3481 F   0  0  0  0  0  0  0  0  0  0  0  0
   26.6688    1.0086   -6.8085 F   0  0  0  0  0  0  0  0  0  0  0  0
   25.9648   -0.0452  -10.7825 C   0  0  0  0  0  0  0  0  0  0  0  0
   24.8160   -0.0126  -11.5390 C   0  0  0  0  0  0  0  0  0  0  0  0
   25.1001    0.6968  -12.8055 C   0  0  0  0  0  0  0  0  0  0  0  0
   26.5923    0.5382  -12.9517 C   0  0  1  0  0  0  0  0  0  0  0  0
   26.8371   -0.7521  -13.3650 F   0  0  0  0  0  0  0  0  0  0  0  0
   27.1687    1.4815  -13.7495 F   0  0  0  0  0  0  0  0  0  0  0  0
   27.0591    0.6720  -11.4905 C   0  0  1  0  0  0  0  0  0  0  0  0
   27.1158    2.0139  -11.1250 O   0  0  0  0  0  0  0  0  0  0  0  0
   20.7036    0.3805  -10.5314 C   0  0  0  0  0  0  0  0  0  0  0  0
  1  2  3  0
  2  3  1  0
  3  4  2  0
  4  5  1  0
  5  6  1  0
  5  7  2  0
  7  8  1  0
  8  9  1  0
  9 10  1  0
 10 11  2  0
 11 12  1  0
 12 13  2  0
 14 13  1  6
 14 15  2  0
 14 16  2  0
 14 17  1  0
 17 18  1  6
 17 19  1  0
 13 20  1  0
 20 21  2  0
 22 21  1  6
 22 23  1  0
 23 24  1  6
 23 25  1  0
 23 26  1  0
 26 27  1  1
  8 28  2  0
 28  3  1  0
 21 10  1  0
 26 20  1  0
M  END
$$$$
