_rank3
     RDKit          3D

 28 30  0  0  0  0  0  0  0  0999 V2000
   18.2119    1.6718   -8.5373 N   0  0  0  0  0  0  0  0  0  0  0  0
   18.7784    0.8772   -9.1593 C   0  0  0  0  0  0  0  0  0  0  0  0
   19.4998   -0.1072   -9.9142 C   0  0  0  0  0  0  0  0  0  0  0  0
   19.0112   -1.3960   -9.9706 C   0  0  0  0  0  0  0  0  0  0  0  0
   19.7231   -2.3220  -10.7024 C   0  0  0  0  0  0  0  0  0  0  0  0
   19.2895   -3.6094  -10.7941 F   0  0  0  0  0  0  0  0  0  0  0  0
   20.8940   -2.0133  -11.3743 C   0  0  0  0  0  0  0  0  0  0  0  0
   21.3749   -0.7244  -11.3128 C   0  0  0  0  0  0  0  0  0  0  0  0
   22.5457   -0.3840  -11.9754 O   0  0  0  0  0  0  0  0  0  0  0  0
   23.7349   -0.4888  -11.2290 C   0  0  0  0  0  0  0  0  0  0  0  0
   23.7811   -1.0313   -9.9736 C   0  0  0  0  0  0  0  0  0  0  0  0
   24.9333   -1.1345   -9.2485 C   0  0  0  0  0  0  0  0  0  0  0  0
   26.1205   -0.6572   -9.8315 C   0  0  0  0  0  0  0  0  0  0  0  0
   27.5596   -0.8799   -8.8756 S   0  0  1  0  0  6  0  0  0  0  0  0
   28.0883   -2.2867   -9.0564 O   0  0  0  0  0  0  0  0  0  0  0  0
   28.6555    0.0232   -9.3858 O   0  0  0  0  0  0  0  0  0  0  0  0
   27.3653   -0.5875   -7.1613 C   0  0  1  0  0  0  0  0  0  0  0  0
   28.4874   -0.6014   -6.4098 F   0  0  0  0  0  0  0  0  0  0  0  0
   26.7681    0.6685   -6.9602 F   0  0  0  0  0  0  0  0  0  0  0  0
   26.1334   -0.0976  -11.0969 C   0  0  0  0  0  0  0  0  0  0  0  0
   24.9387   -0.0234  -11.7753 C   0  0  0  0  0  0  0  0  0  0  0  0
   25.1771    0.6084  -13.0913 C   0  0  0  0  0  0  0  0  0  0  0  0
   26.6425    0.3457  -13.3294 C   0  0  1  0  0  0  0  0  0  0  0  0
   26.7766   -0.9751  -13.6942 F   0  0  0  0  0  0  0  0  0  0  0  0
   27.2194    1.2124  -14.2095 F   0  0  0  0  0  0  0  0  0  0  0  0
   27.2181    0.5137  -11.9111 C   0  0  1  0  0  0  0  0  0  0  0  0
   27.3840    1.8641  -11.6166 O   0  0  0  0  0  0  0  0  0  0  0  0
   20.6643    0.2162  -10.5776 C   0  0  0  0  0  0  0  0  0  0  0  0
  1  2  3  0
  2  3  1  0
  3  4  2  0
  4  5  1  0
  5  6  1  0
  5  7  2  0
  7  8  1  0
  8  9  1  0
  9 10  1  0
 10 11  2  0
 11 12  1  0
 12 13  2  0
 14 13  1  6
 14 15  2  0
 14 16  2  0
 14 17  1  0
 17 18  1  1
 17 19  1  0
 13 20  1  0
 20 21  2  0
 22 21  1  6
 22 23  1  0
 23 24  1  6
 23 25  1  0
 23 26  1  0
 26 27  1  1
  8 28  2  0
 28  3  1  0
 21 10  1  0
 26 20  1  0
M  END
$$$$
