_rank5
     RDKit          3D

 28 30  0  0  0  0  0  0  0  0999 V2000
   17.7924   -3.9589  -10.0986 N   0  0  0  0  0  0  0  0  0  0  0  0
   18.4152   -2.9858  -10.1627 C   0  0  0  0  0  0  0  0  0  0  0  0
   19.2059   -1.7916  -10.2540 C   0  0  0  0  0  0  0  0  0  0  0  0
   18.7627   -0.6471   -9.6240 C   0  0  0  0  0  0  0  0  0  0  0  0
   19.5407    0.4860   -9.7272 C   0  0  0  0  0  0  0  0  0  0  0  0
   19.1542    1.6450   -9.1264 F   0  0  0  0  0  0  0  0  0  0  0  0
   20.7339    0.5199  -10.4292 C   0  0  0  0  0  0  0  0  0  0  0  0
   21.1691   -0.6268  -11.0551 C   0  0  0  0  0  0  0  0  0  0  0  0
   22.3608   -0.6244  -11.7663 O   0  0  0  0  0  0  0  0  0  0  0  0
   23.5402   -0.5414  -11.0020 C   0  0  0  0  0  0  0  0  0  0  0  0
   23.6214   -0.9781   -9.7077 C   0  0  0  0  0  0  0  0  0  0  0  0
   24.7644   -0.8993   -8.9651 C   0  0  0  0  0  0  0  0  0  0  0  0
   25.9036   -0.3410   -9.5714 C   0  0  0  0  0  0  0  0  0  0  0  0
   27.3404   -0.3317   -8.5864 S   0  0  1  0  0  6  0  0  0  0  0  0
   28.4380   -1.1229   -9.2649 O   0  0  0  0  0  0  0  0  0  0  0  0
   27.8754    1.0751   -8.4785 O   0  0  0  0  0  0  0  0  0  0  0  0
   27.1352   -0.9631   -6.9674 C   0  0  1  0  0  0  0  0  0  0  0  0
   27.8755   -2.0430   -6.6361 F   0  0  0  0  0  0  0  0  0  0  0  0
   27.4451    0.0345   -6.0276 F   0  0  0  0  0  0  0  0  0  0  0  0
   25.8795    0.1184  -10.8764 C   0  0  0  0  0  0  0  0  0  0  0  0
   24.6965    0.0097  -11.5706 C   0  0  0  0  0  0  0  0  0  0  0  0
   24.8897    0.5614  -12.9293 C   0  0  0  0  0  0  0  0  0  0  0  0
   26.3791    0.4429  -13.1313 C   0  0  1  0  0  0  0  0  0  0  0  0
   26.6620   -0.8793  -13.3907 F   0  0  0  0  0  0  0  0  0  0  0  0
   26.8752    1.2977  -14.0703 F   0  0  0  0  0  0  0  0  0  0  0  0
   26.9067    0.7806  -11.7246 C   0  0  1  0  0  0  0  0  0  0  0  0
   26.9201    2.1594  -11.5346 O   0  0  0  0  0  0  0  0  0  0  0  0
   20.3917   -1.7740  -10.9568 C   0  0  0  0  0  0  0  0  0  0  0  0
  1  2  3  0
  2  3  1  0
  3  4  2  0
  4  5  1  0
  5  6  1  0
  5  7  2  0
  7  8  1  0
  8  9  1  0
  9 10  1  0
 10 11  2  0
 11 12  1  0
 12 13  2  0
 14 13  1  6
 14 15  2  0
 14 16  2  0
 14 17  1  0
 17 18  1  1
 17 19  1  0
 13 20  1  0
 20 21  2  0
 22 21  1  6
 22 23  1  0
 23 24  1  6
 23 25  1  0
 23 26  1  0
 26 27  1  1
  8 28  2  0
 28  3  1  0
 21 10  1  0
 26 20  1  0
M  END
$$$$
