_rank15
     RDKit          3D

 28 30  0  0  0  0  0  0  0  0999 V2000
   17.7158   -4.0071  -10.6095 N   0  0  0  0  0  0  0  0  0  0  0  0
   18.3449   -3.0361  -10.5952 C   0  0  0  0  0  0  0  0  0  0  0  0
   19.1163   -1.8266  -10.5546 C   0  0  0  0  0  0  0  0  0  0  0  0
   18.6440   -0.7572   -9.8222 C   0  0  0  0  0  0  0  0  0  0  0  0
   19.4040    0.3925   -9.7998 C   0  0  0  0  0  0  0  0  0  0  0  0
   18.9886    1.4801   -9.0940 F   0  0  0  0  0  0  0  0  0  0  0  0
   20.6070    0.5144  -10.4748 C   0  0  0  0  0  0  0  0  0  0  0  0
   21.0712   -0.5577  -11.2036 C   0  0  0  0  0  0  0  0  0  0  0  0
   22.2733   -0.4664  -11.8909 O   0  0  0  0  0  0  0  0  0  0  0  0
   23.4425   -0.5375  -11.1098 C   0  0  0  0  0  0  0  0  0  0  0  0
   23.4569   -1.0310   -9.8336 C   0  0  0  0  0  0  0  0  0  0  0  0
   24.5897   -1.1016   -9.0747 C   0  0  0  0  0  0  0  0  0  0  0  0
   25.7905   -0.6422   -9.6440 C   0  0  0  0  0  0  0  0  0  0  0  0
   27.2043   -0.8222   -8.6424 S   0  0  1  0  0  6  0  0  0  0  0  0
   27.1040   -2.0952   -7.8296 O   0  0  0  0  0  0  0  0  0  0  0  0
   28.4249   -1.0025   -9.5110 O   0  0  0  0  0  0  0  0  0  0  0  0
   27.5088    0.5038   -7.5419 C   0  0  1  0  0  0  0  0  0  0  0  0
   28.4932    0.3285   -6.6341 F   0  0  0  0  0  0  0  0  0  0  0  0
   27.8423    1.6574   -8.2718 F   0  0  0  0  0  0  0  0  0  0  0  0
   25.8354   -0.1317  -10.9293 C   0  0  0  0  0  0  0  0  0  0  0  0
   24.6590   -0.0886  -11.6415 C   0  0  0  0  0  0  0  0  0  0  0  0
   24.9305    0.4930  -12.9741 C   0  0  0  0  0  0  0  0  0  0  0  0
   26.4025    0.2273  -13.1629 C   0  0  1  0  0  0  0  0  0  0  0  0
   26.5503   -1.1060  -13.4728 F   0  0  0  0  0  0  0  0  0  0  0  0
   27.0001    1.0619  -14.0602 F   0  0  0  0  0  0  0  0  0  0  0  0
   26.9396    0.4522  -11.7374 C   0  0  1  0  0  0  0  0  0  0  0  0
   27.0935    1.8135  -11.4910 O   0  0  0  0  0  0  0  0  0  0  0  0
   20.3122   -1.7210  -11.2323 C   0  0  0  0  0  0  0  0  0  0  0  0
  1  2  3  0
  2  3  1  0
  3  4  2  0
  4  5  1  0
  5  6  1  0
  5  7  2  0
  7  8  1  0
  8  9  1  0
  9 10  1  0
 10 11  2  0
 11 12  1  0
 12 13  2  0
 14 13  1  6
 14 15  2  0
 14 16  2  0
 14 17  1  0
 17 18  1  1
 17 19  1  0
 13 20  1  0
 20 21  2  0
 22 21  1  6
 22 23  1  0
 23 24  1  6
 23 25  1  0
 23 26  1  0
 26 27  1  1
  8 28  2  0
 28  3  1  0
 21 10  1  0
 26 20  1  0
M  END
$$$$
