_rank15
     RDKit          3D

 25 27  0  0  0  0  0  0  0  0999 V2000
   28.0023   -2.1190   -8.0232 C   0  0  0  0  0  0  0  0  0  0  0  0
   27.7179   -0.4964   -8.6379 S   0  0  1  0  0  6  0  0  0  0  0  0
   27.7334    0.4950   -7.5028 O   0  0  0  0  0  0  0  0  0  0  0  0
   28.8092   -0.1743   -9.6193 O   0  0  0  0  0  0  0  0  0  0  0  0
   26.1955   -0.4025   -9.5085 C   0  0  0  0  0  0  0  0  0  0  0  0
   25.0479   -0.8343   -8.8908 C   0  0  0  0  0  0  0  0  0  0  0  0
   23.8790   -0.7394   -9.6159 C   0  0  0  0  0  0  0  0  0  0  0  0
   23.8203   -0.2479  -10.8849 C   0  0  0  0  0  0  0  0  0  0  0  0
   22.6534   -0.1426  -11.6352 O   0  0  0  0  0  0  0  0  0  0  0  0
   21.3960   -0.3734  -11.0759 C   0  0  0  0  0  0  0  0  0  0  0  0
   20.7655    0.6902  -10.4675 C   0  0  0  0  0  0  0  0  0  0  0  0
   19.5226    0.4799   -9.9098 C   0  0  0  0  0  0  0  0  0  0  0  0
   18.9051    1.5364   -9.3096 F   0  0  0  0  0  0  0  0  0  0  0  0
   18.9374   -0.7672   -9.9665 C   0  0  0  0  0  0  0  0  0  0  0  0
   19.5508   -1.8462  -10.5707 C   0  0  0  0  0  0  0  0  0  0  0  0
   18.9310   -3.1453  -10.6245 C   0  0  0  0  0  0  0  0  0  0  0  0
   18.4305   -4.1894  -10.6476 N   0  0  0  0  0  0  0  0  0  0  0  0
   20.7933   -1.6129  -11.1218 C   0  0  0  0  0  0  0  0  0  0  0  0
   24.9939    0.1938  -11.5169 C   0  0  0  0  0  0  0  0  0  0  0  0
   26.1581    0.1039  -10.8067 C   0  0  0  0  0  0  0  0  0  0  0  0
   27.3007    0.6099  -11.6223 C   0  0  2  0  0  0  0  0  0  0  0  0
   27.6026    1.9207  -11.2957 O   0  0  0  0  0  0  0  0  0  0  0  0
   26.7178    0.5895  -13.0421 C   0  0  1  0  0  0  0  0  0  0  0  0
   27.0471   -0.6126  -13.6470 F   0  0  0  0  0  0  0  0  0  0  0  0
   25.2443    0.7665  -12.8569 C   0  0  0  0  0  0  0  0  0  0  0  0
  1  2  1  6
  2  3  2  0
  2  4  2  0
  2  5  1  6
  5  6  2  0
  6  7  1  0
  7  8  2  0
  8  9  1  0
  9 10  1  0
 10 11  2  0
 11 12  1  0
 12 13  1  0
 12 14  2  0
 14 15  1  0
 15 16  1  0
 16 17  3  0
 15 18  2  0
  8 19  1  0
 19 20  2  0
 20 21  1  0
 21 22  1  1
 21 23  1  0
 23 24  1  1
 23 25  1  0
 20  5  1  0
 18 10  1  0
 25 19  1  6
M  END
$$$$
