_rank20
     RDKit          3D

 25 27  0  0  0  0  0  0  0  0999 V2000
   18.6677   -2.4374  -12.9203 C   0  0  0  0  0  0  0  0  0  0  0  0
   19.2366   -2.7076  -11.2787 S   0  0  1  0  0  6  0  0  0  0  0  0
   18.1422   -2.3844  -10.2941 O   0  0  0  0  0  0  0  0  0  0  0  0
   19.6308   -4.1523  -11.1563 O   0  0  0  0  0  0  0  0  0  0  0  0
   20.6682   -1.7501  -10.9347 C   0  0  0  0  0  0  0  0  0  0  0  0
   21.8973   -2.2318  -11.3119 C   0  0  0  0  0  0  0  0  0  0  0  0
   22.9897   -1.4427  -11.0198 C   0  0  0  0  0  0  0  0  0  0  0  0
   22.8992   -0.2385  -10.3898 C   0  0  0  0  0  0  0  0  0  0  0  0
   23.9867    0.5742  -10.0851 O   0  0  0  0  0  0  0  0  0  0  0  0
   25.2988    0.1055  -10.1590 C   0  0  0  0  0  0  0  0  0  0  0  0
   25.7523   -0.3250  -11.3870 C   0  0  0  0  0  0  0  0  0  0  0  0
   27.0463   -0.7912  -11.4781 C   0  0  0  0  0  0  0  0  0  0  0  0
   27.4878   -1.2155  -12.6958 F   0  0  0  0  0  0  0  0  0  0  0  0
   27.8546   -0.8204  -10.3615 C   0  0  0  0  0  0  0  0  0  0  0  0
   27.4212   -0.3943   -9.1221 C   0  0  0  0  0  0  0  0  0  0  0  0
   28.2736   -0.4292   -7.9616 C   0  0  0  0  0  0  0  0  0  0  0  0
   28.9751   -0.4591   -7.0406 N   0  0  0  0  0  0  0  0  0  0  0  0
   26.1236    0.0679   -9.0544 C   0  0  0  0  0  0  0  0  0  0  0  0
   21.6422    0.2543  -10.0039 C   0  0  0  0  0  0  0  0  0  0  0  0
   20.5529   -0.5203  -10.2888 C   0  0  0  0  0  0  0  0  0  0  0  0
   19.3062    0.1465   -9.8111 C   0  0  2  0  0  0  0  0  0  0  0  0
   18.6732    0.8157  -10.8443 O   0  0  0  0  0  0  0  0  0  0  0  0
   19.8546    1.1889   -8.8269 C   0  0  1  0  0  0  0  0  0  0  0  0
   19.8464    0.6511   -7.5501 F   0  0  0  0  0  0  0  0  0  0  0  0
   21.2313    1.5000   -9.3215 C   0  0  0  0  0  0  0  0  0  0  0  0
  1  2  1  6
  2  3  2  0
  2  4  2  0
  2  5  1  1
  5  6  2  0
  6  7  1  0
  7  8  2  0
  8  9  1  0
  9 10  1  0
 10 11  2  0
 11 12  1  0
 12 13  1  0
 12 14  2  0
 14 15  1  0
 15 16  1  0
 16 17  3  0
 15 18  2  0
  8 19  1  0
 19 20  2  0
 20 21  1  0
 21 22  1  6
 21 23  1  0
 23 24  1  1
 23 25  1  0
 20  5  1  0
 18 10  1  0
 25 19  1  6
M  END
$$$$
