_rank8
     RDKit          3D

 25 27  0  0  0  0  0  0  0  0999 V2000
   28.8790   -0.7709   -9.4631 C   0  0  0  0  0  0  0  0  0  0  0  0
   27.5122   -0.1504   -8.5476 S   0  0  1  0  0  6  0  0  0  0  0  0
   27.3784   -0.9018   -7.2480 O   0  0  0  0  0  0  0  0  0  0  0  0
   27.7578    1.3072   -8.2780 O   0  0  0  0  0  0  0  0  0  0  0  0
   26.0230   -0.2614   -9.4720 C   0  0  0  0  0  0  0  0  0  0  0  0
   24.9173   -0.8276   -8.8872 C   0  0  0  0  0  0  0  0  0  0  0  0
   23.7731   -0.8908   -9.6540 C   0  0  0  0  0  0  0  0  0  0  0  0
   23.6993   -0.4266  -10.9324 C   0  0  0  0  0  0  0  0  0  0  0  0
   22.5566   -0.4797  -11.7244 O   0  0  0  0  0  0  0  0  0  0  0  0
   21.2765   -0.4869  -11.1692 C   0  0  0  0  0  0  0  0  0  0  0  0
   20.8312    0.6775  -10.5822 C   0  0  0  0  0  0  0  0  0  0  0  0
   19.5687    0.6880  -10.0288 C   0  0  0  0  0  0  0  0  0  0  0  0
   19.1350    1.8432   -9.4498 F   0  0  0  0  0  0  0  0  0  0  0  0
   18.7830   -0.4442  -10.0687 C   0  0  0  0  0  0  0  0  0  0  0  0
   19.2089   -1.6210  -10.6513 C   0  0  0  0  0  0  0  0  0  0  0  0
   18.3803   -2.7986  -10.6875 C   0  0  0  0  0  0  0  0  0  0  0  0
   17.7102   -3.7431  -10.6970 N   0  0  0  0  0  0  0  0  0  0  0  0
   20.4748   -1.6086  -11.1985 C   0  0  0  0  0  0  0  0  0  0  0  0
   24.8300    0.1525  -11.5308 C   0  0  0  0  0  0  0  0  0  0  0  0
   25.9694    0.2199  -10.7791 C   0  0  0  0  0  0  0  0  0  0  0  0
   27.0680    0.8566  -11.5631 C   0  0  2  0  0  0  0  0  0  0  0  0
   27.1897    2.1990  -11.2487 O   0  0  0  0  0  0  0  0  0  0  0  0
   26.5446    0.7445  -13.0017 C   0  0  1  0  0  0  0  0  0  0  0  0
   27.0451   -0.4135  -13.5743 F   0  0  0  0  0  0  0  0  0  0  0  0
   25.0549    0.7355  -12.8708 C   0  0  0  0  0  0  0  0  0  0  0  0
  1  2  1  6
  2  3  2  0
  2  4  2  0
  2  5  1  6
  5  6  2  0
  6  7  1  0
  7  8  2  0
  8  9  1  0
  9 10  1  0
 10 11  2  0
 11 12  1  0
 12 13  1  0
 12 14  2  0
 14 15  1  0
 15 16  1  0
 16 17  3  0
 15 18  2  0
  8 19  1  0
 19 20  2  0
 20 21  1  0
 21 22  1  1
 21 23  1  0
 23 24  1  1
 23 25  1  0
 20  5  1  0
 18 10  1  0
 25 19  1  6
M  END
$$$$
