_rank14
     RDKit          3D

 25 27  0  0  0  0  0  0  0  0999 V2000
   28.1483    0.8795   -8.0480 C   0  0  0  0  0  0  0  0  0  0  0  0
   27.5747   -0.7341   -8.4463 S   0  0  1  0  0  6  0  0  0  0  0  0
   28.6170   -1.4677   -9.2507 O   0  0  0  0  0  0  0  0  0  0  0  0
   27.3088   -1.4627   -7.1595 O   0  0  0  0  0  0  0  0  0  0  0  0
   26.0571   -0.6713   -9.3281 C   0  0  0  0  0  0  0  0  0  0  0  0
   24.9131   -1.1212   -8.7167 C   0  0  0  0  0  0  0  0  0  0  0  0
   23.7479   -1.0503   -9.4505 C   0  0  0  0  0  0  0  0  0  0  0  0
   23.6895   -0.5652  -10.7219 C   0  0  0  0  0  0  0  0  0  0  0  0
   22.5262   -0.4840  -11.4808 O   0  0  0  0  0  0  0  0  0  0  0  0
   21.2637   -0.6591  -10.9129 C   0  0  0  0  0  0  0  0  0  0  0  0
   20.6786    0.4350  -10.3134 C   0  0  0  0  0  0  0  0  0  0  0  0
   19.4313    0.2798   -9.7474 C   0  0  0  0  0  0  0  0  0  0  0  0
   18.8589    1.3663   -9.1561 F   0  0  0  0  0  0  0  0  0  0  0  0
   18.7975   -0.9439   -9.7874 C   0  0  0  0  0  0  0  0  0  0  0  0
   19.3648   -2.0527  -10.3824 C   0  0  0  0  0  0  0  0  0  0  0  0
   18.6943   -3.3270  -10.4186 C   0  0  0  0  0  0  0  0  0  0  0  0
   18.1607   -4.3537  -10.4670 N   0  0  0  0  0  0  0  0  0  0  0  0
   20.6127   -1.8744  -10.9421 C   0  0  0  0  0  0  0  0  0  0  0  0
   24.8594   -0.1049  -11.3474 C   0  0  0  0  0  0  0  0  0  0  0  0
   26.0199   -0.1709  -10.6286 C   0  0  0  0  0  0  0  0  0  0  0  0
   27.1590    0.3523  -11.4382 C   0  0  2  0  0  0  0  0  0  0  0  0
   27.4349    1.6696  -11.1150 O   0  0  0  0  0  0  0  0  0  0  0  0
   26.5867    0.3155  -12.8619 C   0  0  1  0  0  0  0  0  0  0  0  0
   26.9419   -0.8829  -13.4595 F   0  0  0  0  0  0  0  0  0  0  0  0
   25.1090    0.4667  -12.6880 C   0  0  0  0  0  0  0  0  0  0  0  0
  1  2  1  6
  2  3  2  0
  2  4  2  0
  2  5  1  6
  5  6  2  0
  6  7  1  0
  7  8  2  0
  8  9  1  0
  9 10  1  0
 10 11  2  0
 11 12  1  0
 12 13  1  0
 12 14  2  0
 14 15  1  0
 15 16  1  0
 16 17  3  0
 15 18  2  0
  8 19  1  0
 19 20  2  0
 20 21  1  0
 21 22  1  1
 21 23  1  0
 23 24  1  1
 23 25  1  0
 20  5  1  0
 18 10  1  0
 25 19  1  6
M  END
$$$$
