_rank1
     RDKit          3D

 25 27  0  0  0  0  0  0  0  0999 V2000
   28.7180    0.9263   -9.0969 C   0  0  0  0  0  0  0  0  0  0  0  0
   27.7252   -0.4871   -8.7684 S   0  0  1  0  0  6  0  0  0  0  0  0
   28.4865   -1.7424   -9.1095 O   0  0  0  0  0  0  0  0  0  0  0  0
   27.3736   -0.4777   -7.3076 O   0  0  0  0  0  0  0  0  0  0  0  0
   26.2156   -0.4275   -9.6640 C   0  0  0  0  0  0  0  0  0  0  0  0
   25.0681   -0.8855   -9.0652 C   0  0  0  0  0  0  0  0  0  0  0  0
   23.9094   -0.8168   -9.8095 C   0  0  0  0  0  0  0  0  0  0  0  0
   23.8605   -0.3263  -11.0793 C   0  0  0  0  0  0  0  0  0  0  0  0
   22.7040   -0.2472  -11.8487 O   0  0  0  0  0  0  0  0  0  0  0  0
   21.4409   -0.4813  -11.3041 C   0  0  0  0  0  0  0  0  0  0  0  0
   20.9269   -1.7551  -11.4140 C   0  0  0  0  0  0  0  0  0  0  0  0
   19.6800   -2.0040  -10.8813 C   0  0  0  0  0  0  0  0  0  0  0  0
   19.1781   -3.2662  -10.9939 F   0  0  0  0  0  0  0  0  0  0  0  0
   18.9768   -0.9953  -10.2577 C   0  0  0  0  0  0  0  0  0  0  0  0
   19.4723    0.2874  -10.1364 C   0  0  0  0  0  0  0  0  0  0  0  0
   18.7294    1.3343   -9.4832 C   0  0  0  0  0  0  0  0  0  0  0  0
   18.1494    2.1850   -8.9530 N   0  0  0  0  0  0  0  0  0  0  0  0
   20.7210    0.5135  -10.6764 C   0  0  0  0  0  0  0  0  0  0  0  0
   25.0340    0.1422  -11.6919 C   0  0  0  0  0  0  0  0  0  0  0  0
   26.1881    0.0785  -10.9626 C   0  0  0  0  0  0  0  0  0  0  0  0
   27.3322    0.6107  -11.7592 C   0  0  2  0  0  0  0  0  0  0  0  0
   27.5988    1.9278  -11.4276 O   0  0  0  0  0  0  0  0  0  0  0  0
   26.7734    0.5776  -13.1884 C   0  0  1  0  0  0  0  0  0  0  0  0
   27.1398   -0.6165  -13.7879 F   0  0  0  0  0  0  0  0  0  0  0  0
   25.2934    0.7210  -13.0275 C   0  0  0  0  0  0  0  0  0  0  0  0
  1  2  1  6
  2  3  2  0
  2  4  2  0
  2  5  1  6
  5  6  2  0
  6  7  1  0
  7  8  2  0
  8  9  1  0
  9 10  1  0
 10 11  2  0
 11 12  1  0
 12 13  1  0
 12 14  2  0
 14 15  1  0
 15 16  1  0
 16 17  3  0
 15 18  2  0
  8 19  1  0
 19 20  2  0
 20 21  1  0
 21 22  1  1
 21 23  1  0
 23 24  1  1
 23 25  1  0
 20  5  1  0
 18 10  1  0
 25 19  1  6
M  END
$$$$
