_rank18
     RDKit          3D

 25 27  0  0  0  0  0  0  0  0999 V2000
   28.8226   -2.0538   -9.2405 C   0  0  0  0  0  0  0  0  0  0  0  0
   28.0014   -0.5390   -8.8905 S   0  0  1  0  0  6  0  0  0  0  0  0
   27.7653   -0.4114   -7.4074 O   0  0  0  0  0  0  0  0  0  0  0  0
   28.8750    0.5845   -9.3725 O   0  0  0  0  0  0  0  0  0  0  0  0
   26.4811   -0.4222   -9.7620 C   0  0  0  0  0  0  0  0  0  0  0  0
   25.3147   -0.7394   -9.1110 C   0  0  0  0  0  0  0  0  0  0  0  0
   24.1484   -0.6312   -9.8384 C   0  0  0  0  0  0  0  0  0  0  0  0
   24.1097   -0.2331  -11.1405 C   0  0  0  0  0  0  0  0  0  0  0  0
   22.9457   -0.1165  -11.8937 O   0  0  0  0  0  0  0  0  0  0  0  0
   21.7025   -0.5019  -11.3910 C   0  0  0  0  0  0  0  0  0  0  0  0
   21.3353   -1.8212  -11.5448 C   0  0  0  0  0  0  0  0  0  0  0  0
   20.1103   -2.2192  -11.0538 C   0  0  0  0  0  0  0  0  0  0  0  0
   19.7539   -3.5255  -11.2097 F   0  0  0  0  0  0  0  0  0  0  0  0
   19.2841   -1.3104  -10.4274 C   0  0  0  0  0  0  0  0  0  0  0  0
   19.6316    0.0154  -10.2626 C   0  0  0  0  0  0  0  0  0  0  0  0
   18.7610    0.9570   -9.6069 C   0  0  0  0  0  0  0  0  0  0  0  0
   18.0700    1.7292   -9.0898 N   0  0  0  0  0  0  0  0  0  0  0  0
   20.8613    0.3912  -10.7613 C   0  0  0  0  0  0  0  0  0  0  0  0
   25.3025    0.0914  -11.8066 C   0  0  0  0  0  0  0  0  0  0  0  0
   26.4643   -0.0127  -11.0944 C   0  0  0  0  0  0  0  0  0  0  0  0
   27.6287    0.3640  -11.9483 C   0  0  2  0  0  0  0  0  0  0  0  0
   28.0078    1.6758  -11.7214 O   0  0  0  0  0  0  0  0  0  0  0  0
   27.0360    0.2716  -13.3611 C   0  0  1  0  0  0  0  0  0  0  0  0
   27.2914   -0.9893  -13.8752 F   0  0  0  0  0  0  0  0  0  0  0  0
   25.5765    0.5471  -13.1862 C   0  0  0  0  0  0  0  0  0  0  0  0
  1  2  1  6
  2  3  2  0
  2  4  2  0
  2  5  1  6
  5  6  2  0
  6  7  1  0
  7  8  2  0
  8  9  1  0
  9 10  1  0
 10 11  2  0
 11 12  1  0
 12 13  1  0
 12 14  2  0
 14 15  1  0
 15 16  1  0
 16 17  3  0
 15 18  2  0
  8 19  1  0
 19 20  2  0
 20 21  1  0
 21 22  1  1
 21 23  1  0
 23 24  1  1
 23 25  1  0
 20  5  1  0
 18 10  1  0
 25 19  1  6
M  END
$$$$
