_rank16
     RDKit          3D

 25 27  0  0  0  0  0  0  0  0999 V2000
   28.9089   -1.7619   -9.7180 C   0  0  0  0  0  0  0  0  0  0  0  0
   27.8086   -0.8293   -8.7125 S   0  0  1  0  0  6  0  0  0  0  0  0
   27.5854   -1.5358   -7.4000 O   0  0  0  0  0  0  0  0  0  0  0  0
   28.4277    0.5188   -8.4741 O   0  0  0  0  0  0  0  0  0  0  0  0
   26.2763   -0.5578   -9.5268 C   0  0  0  0  0  0  0  0  0  0  0  0
   25.1114   -0.8930   -8.8820 C   0  0  0  0  0  0  0  0  0  0  0  0
   23.9355   -0.6599   -9.5632 C   0  0  0  0  0  0  0  0  0  0  0  0
   23.8861   -0.1255  -10.8151 C   0  0  0  0  0  0  0  0  0  0  0  0
   22.7124    0.1185  -11.5212 O   0  0  0  0  0  0  0  0  0  0  0  0
   21.4723   -0.3279  -11.0632 C   0  0  0  0  0  0  0  0  0  0  0  0
   21.2009   -1.6744  -11.1725 C   0  0  0  0  0  0  0  0  0  0  0  0
   19.9803   -2.1326  -10.7248 C   0  0  0  0  0  0  0  0  0  0  0  0
   19.7188   -3.4657  -10.8362 F   0  0  0  0  0  0  0  0  0  0  0  0
   19.0645   -1.2553  -10.1841 C   0  0  0  0  0  0  0  0  0  0  0  0
   19.3152    0.0969  -10.0651 C   0  0  0  0  0  0  0  0  0  0  0  0
   18.3515    1.0053   -9.4988 C   0  0  0  0  0  0  0  0  0  0  0  0
   17.5694    1.7393   -9.0621 N   0  0  0  0  0  0  0  0  0  0  0  0
   20.5423    0.5330  -10.5193 C   0  0  0  0  0  0  0  0  0  0  0  0
   25.0774    0.2174  -11.4748 C   0  0  0  0  0  0  0  0  0  0  0  0
   26.2487   -0.0096  -10.8082 C   0  0  0  0  0  0  0  0  0  0  0  0
   27.4098    0.4061  -11.6483 C   0  0  2  0  0  0  0  0  0  0  0  0
   27.8515    1.6696  -11.2957 O   0  0  0  0  0  0  0  0  0  0  0  0
   26.7830    0.4881  -13.0470 C   0  0  1  0  0  0  0  0  0  0  0  0
   26.9710   -0.7211  -13.6966 F   0  0  0  0  0  0  0  0  0  0  0  0
   25.3413    0.8043  -12.8060 C   0  0  0  0  0  0  0  0  0  0  0  0
  1  2  1  6
  2  3  2  0
  2  4  2  0
  2  5  1  6
  5  6  2  0
  6  7  1  0
  7  8  2  0
  8  9  1  0
  9 10  1  0
 10 11  2  0
 11 12  1  0
 12 13  1  0
 12 14  2  0
 14 15  1  0
 15 16  1  0
 16 17  3  0
 15 18  2  0
  8 19  1  0
 19 20  2  0
 20 21  1  0
 21 22  1  1
 21 23  1  0
 23 24  1  1
 23 25  1  0
 20  5  1  0
 18 10  1  0
 25 19  1  6
M  END
$$$$
