_rank6
     RDKit          3D

 25 27  0  0  0  0  0  0  0  0999 V2000
   28.9252   -1.3509   -9.3332 C   0  0  0  0  0  0  0  0  0  0  0  0
   27.7243   -0.3707   -8.5033 S   0  0  1  0  0  6  0  0  0  0  0  0
   27.4850   -0.9125   -7.1174 O   0  0  0  0  0  0  0  0  0  0  0  0
   28.2475    1.0356   -8.4244 O   0  0  0  0  0  0  0  0  0  0  0  0
   26.2174   -0.3119   -9.4034 C   0  0  0  0  0  0  0  0  0  0  0  0
   25.0616   -0.7343   -8.7945 C   0  0  0  0  0  0  0  0  0  0  0  0
   23.9054   -0.6678   -9.5429 C   0  0  0  0  0  0  0  0  0  0  0  0
   23.8666   -0.2124  -10.8260 C   0  0  0  0  0  0  0  0  0  0  0  0
   22.7128   -0.1363  -11.5998 O   0  0  0  0  0  0  0  0  0  0  0  0
   21.4518   -0.4097  -11.0689 C   0  0  0  0  0  0  0  0  0  0  0  0
   20.9572   -1.6859  -11.2290 C   0  0  0  0  0  0  0  0  0  0  0  0
   19.7127   -1.9734  -10.7105 C   0  0  0  0  0  0  0  0  0  0  0  0
   19.2300   -3.2377  -10.8728 F   0  0  0  0  0  0  0  0  0  0  0  0
   18.9927   -0.9999  -10.0513 C   0  0  0  0  0  0  0  0  0  0  0  0
   19.4686    0.2845   -9.8794 C   0  0  0  0  0  0  0  0  0  0  0  0
   18.7083    1.2945   -9.1893 C   0  0  0  0  0  0  0  0  0  0  0  0
   18.1055    2.1010   -8.6170 N   0  0  0  0  0  0  0  0  0  0  0  0
   20.7154    0.5496  -10.4061 C   0  0  0  0  0  0  0  0  0  0  0  0
   25.0486    0.2196  -11.4491 C   0  0  0  0  0  0  0  0  0  0  0  0
   26.2002    0.1578  -10.7158 C   0  0  0  0  0  0  0  0  0  0  0  0
   27.3542    0.6488  -11.5246 C   0  0  2  0  0  0  0  0  0  0  0  0
   27.6415    1.9702  -11.2296 O   0  0  0  0  0  0  0  0  0  0  0  0
   26.7972    0.5846  -12.9535 C   0  0  1  0  0  0  0  0  0  0  0  0
   27.1453   -0.6316  -13.5184 F   0  0  0  0  0  0  0  0  0  0  0  0
   25.3195    0.7564  -12.7999 C   0  0  0  0  0  0  0  0  0  0  0  0
  1  2  1  6
  2  3  2  0
  2  4  2  0
  2  5  1  6
  5  6  2  0
  6  7  1  0
  7  8  2  0
  8  9  1  0
  9 10  1  0
 10 11  2  0
 11 12  1  0
 12 13  1  0
 12 14  2  0
 14 15  1  0
 15 16  1  0
 16 17  3  0
 15 18  2  0
  8 19  1  0
 19 20  2  0
 20 21  1  0
 21 22  1  1
 21 23  1  0
 23 24  1  1
 23 25  1  0
 20  5  1  0
 18 10  1  0
 25 19  1  6
M  END
$$$$
