_rank10
     RDKit          3D

 25 27  0  0  0  0  0  0  0  0999 V2000
   28.6107   -1.6024   -9.3545 C   0  0  0  0  0  0  0  0  0  0  0  0
   27.6388   -0.2512   -8.7880 S   0  0  1  0  0  6  0  0  0  0  0  0
   27.3948   -0.3773   -7.3061 O   0  0  0  0  0  0  0  0  0  0  0  0
   28.3907    1.0162   -9.0812 O   0  0  0  0  0  0  0  0  0  0  0  0
   26.1122   -0.1581   -9.6513 C   0  0  0  0  0  0  0  0  0  0  0  0
   24.9567   -0.5130   -9.0002 C   0  0  0  0  0  0  0  0  0  0  0  0
   23.7848   -0.4221   -9.7211 C   0  0  0  0  0  0  0  0  0  0  0  0
   23.7307   -0.0058  -11.0169 C   0  0  0  0  0  0  0  0  0  0  0  0
   22.5608    0.0939  -11.7635 O   0  0  0  0  0  0  0  0  0  0  0  0
   21.3085   -0.1680  -11.2068 C   0  0  0  0  0  0  0  0  0  0  0  0
   20.6746    0.8657  -10.5522 C   0  0  0  0  0  0  0  0  0  0  0  0
   19.4364    0.6245   -9.9963 C   0  0  0  0  0  0  0  0  0  0  0  0
   18.8156    1.6516   -9.3503 F   0  0  0  0  0  0  0  0  0  0  0  0
   18.8593   -0.6233  -10.1002 C   0  0  0  0  0  0  0  0  0  0  0  0
   19.4761   -1.6727  -10.7511 C   0  0  0  0  0  0  0  0  0  0  0  0
   18.8646   -2.9727  -10.8538 C   0  0  0  0  0  0  0  0  0  0  0  0
   18.3772   -4.0183  -10.9562 N   0  0  0  0  0  0  0  0  0  0  0  0
   20.7137   -1.4087  -11.2994 C   0  0  0  0  0  0  0  0  0  0  0  0
   24.9123    0.3572  -11.6831 C   0  0  0  0  0  0  0  0  0  0  0  0
   26.0795    0.2706  -10.9773 C   0  0  0  0  0  0  0  0  0  0  0  0
   27.2307    0.6878  -11.8303 C   0  0  2  0  0  0  0  0  0  0  0  0
   27.5792    2.0048  -11.5855 O   0  0  0  0  0  0  0  0  0  0  0  0
   26.6340    0.6021  -13.2419 C   0  0  1  0  0  0  0  0  0  0  0  0
   26.9173   -0.6445  -13.7759 F   0  0  0  0  0  0  0  0  0  0  0  0
   25.1691    0.8398  -13.0569 C   0  0  0  0  0  0  0  0  0  0  0  0
  1  2  1  6
  2  3  2  0
  2  4  2  0
  2  5  1  6
  5  6  2  0
  6  7  1  0
  7  8  2  0
  8  9  1  0
  9 10  1  0
 10 11  2  0
 11 12  1  0
 12 13  1  0
 12 14  2  0
 14 15  1  0
 15 16  1  0
 16 17  3  0
 15 18  2  0
  8 19  1  0
 19 20  2  0
 20 21  1  0
 21 22  1  1
 21 23  1  0
 23 24  1  1
 23 25  1  0
 20  5  1  0
 18 10  1  0
 25 19  1  6
M  END
$$$$
