_rank5
     RDKit          3D

 25 27  0  0  0  0  0  0  0  0999 V2000
   28.7736   -1.4536   -9.4204 C   0  0  0  0  0  0  0  0  0  0  0  0
   27.6311   -0.3762   -8.6296 S   0  0  1  0  0  6  0  0  0  0  0  0
   27.4004   -0.8225   -7.2087 O   0  0  0  0  0  0  0  0  0  0  0  0
   28.2116    1.0096   -8.6474 O   0  0  0  0  0  0  0  0  0  0  0  0
   26.1085   -0.3101   -9.5026 C   0  0  0  0  0  0  0  0  0  0  0  0
   24.9551   -0.6833   -8.8581 C   0  0  0  0  0  0  0  0  0  0  0  0
   23.7864   -0.6131   -9.5863 C   0  0  0  0  0  0  0  0  0  0  0  0
   23.7333   -0.1998  -10.8831 C   0  0  0  0  0  0  0  0  0  0  0  0
   22.5666   -0.1210  -11.6371 O   0  0  0  0  0  0  0  0  0  0  0  0
   21.3176   -0.4226  -11.0932 C   0  0  0  0  0  0  0  0  0  0  0  0
   20.8667   -1.7189  -11.2156 C   0  0  0  0  0  0  0  0  0  0  0  0
   19.6347   -2.0344  -10.6838 C   0  0  0  0  0  0  0  0  0  0  0  0
   19.1953   -3.3186  -10.8088 F   0  0  0  0  0  0  0  0  0  0  0  0
   18.8838   -1.0681  -10.0489 C   0  0  0  0  0  0  0  0  0  0  0  0
   19.3158    0.2362   -9.9150 C   0  0  0  0  0  0  0  0  0  0  0  0
   18.5235    1.2384   -9.2499 C   0  0  0  0  0  0  0  0  0  0  0  0
   17.8926    2.0370   -8.6973 N   0  0  0  0  0  0  0  0  0  0  0  0
   20.5509    0.5291  -10.4543 C   0  0  0  0  0  0  0  0  0  0  0  0
   24.9128    0.1819  -11.5426 C   0  0  0  0  0  0  0  0  0  0  0  0
   26.0769    0.1160  -10.8295 C   0  0  0  0  0  0  0  0  0  0  0  0
   27.2262    0.5512  -11.6760 C   0  0  2  0  0  0  0  0  0  0  0  0
   27.5510    1.8742  -11.4312 O   0  0  0  0  0  0  0  0  0  0  0  0
   26.6398    0.4533  -13.0911 C   0  0  1  0  0  0  0  0  0  0  0  0
   26.9473   -0.7892  -13.6213 F   0  0  0  0  0  0  0  0  0  0  0  0
   25.1700    0.6666  -12.9156 C   0  0  0  0  0  0  0  0  0  0  0  0
  1  2  1  6
  2  3  2  0
  2  4  2  0
  2  5  1  6
  5  6  2  0
  6  7  1  0
  7  8  2  0
  8  9  1  0
  9 10  1  0
 10 11  2  0
 11 12  1  0
 12 13  1  0
 12 14  2  0
 14 15  1  0
 15 16  1  0
 16 17  3  0
 15 18  2  0
  8 19  1  0
 19 20  2  0
 20 21  1  0
 21 22  1  1
 21 23  1  0
 23 24  1  1
 23 25  1  0
 20  5  1  0
 18 10  1  0
 25 19  1  6
M  END
$$$$
