_rank7
     RDKit          3D

 25 27  0  0  0  0  0  0  0  0999 V2000
   28.9997    0.6534   -9.0308 C   0  0  0  0  0  0  0  0  0  0  0  0
   27.9209   -0.6846   -8.6600 S   0  0  1  0  0  6  0  0  0  0  0  0
   28.5804   -1.9923   -9.0156 O   0  0  0  0  0  0  0  0  0  0  0  0
   27.6182   -0.6425   -7.1889 O   0  0  0  0  0  0  0  0  0  0  0  0
   26.3910   -0.5233   -9.5074 C   0  0  0  0  0  0  0  0  0  0  0  0
   25.2281   -0.8318   -8.8460 C   0  0  0  0  0  0  0  0  0  0  0  0
   24.0539   -0.6882   -9.5545 C   0  0  0  0  0  0  0  0  0  0  0  0
   24.0045   -0.2643  -10.8480 C   0  0  0  0  0  0  0  0  0  0  0  0
   22.8325   -0.1120  -11.5822 O   0  0  0  0  0  0  0  0  0  0  0  0
   21.5926   -0.5073  -11.0789 C   0  0  0  0  0  0  0  0  0  0  0  0
   21.2243   -1.8232  -11.2561 C   0  0  0  0  0  0  0  0  0  0  0  0
   20.0025   -2.2309  -10.7650 C   0  0  0  0  0  0  0  0  0  0  0  0
   19.6450   -3.5339  -10.9442 F   0  0  0  0  0  0  0  0  0  0  0  0
   19.1806   -1.3346  -10.1155 C   0  0  0  0  0  0  0  0  0  0  0  0
   19.5292   -0.0123   -9.9269 C   0  0  0  0  0  0  0  0  0  0  0  0
   18.6631    0.9162   -9.2471 C   0  0  0  0  0  0  0  0  0  0  0  0
   17.9546    1.6475   -8.6952 N   0  0  0  0  0  0  0  0  0  0  0  0
   20.7556    0.3733  -10.4263 C   0  0  0  0  0  0  0  0  0  0  0  0
   25.1937    0.0513  -11.5247 C   0  0  0  0  0  0  0  0  0  0  0  0
   26.3632   -0.0877  -10.8313 C   0  0  0  0  0  0  0  0  0  0  0  0
   27.5224    0.2842  -11.6943 C   0  0  2  0  0  0  0  0  0  0  0  0
   27.9288    1.5842  -11.4478 O   0  0  0  0  0  0  0  0  0  0  0  0
   26.9085    0.2300  -13.1001 C   0  0  1  0  0  0  0  0  0  0  0  0
   27.1334   -1.0251  -13.6418 F   0  0  0  0  0  0  0  0  0  0  0  0
   25.4569    0.5286  -12.8991 C   0  0  0  0  0  0  0  0  0  0  0  0
  1  2  1  6
  2  3  2  0
  2  4  2  0
  2  5  1  6
  5  6  2  0
  6  7  1  0
  7  8  2  0
  8  9  1  0
  9 10  1  0
 10 11  2  0
 11 12  1  0
 12 13  1  0
 12 14  2  0
 14 15  1  0
 15 16  1  0
 16 17  3  0
 15 18  2  0
  8 19  1  0
 19 20  2  0
 20 21  1  0
 21 22  1  1
 21 23  1  0
 23 24  1  1
 23 25  1  0
 20  5  1  0
 18 10  1  0
 25 19  1  6
M  END
$$$$
