_rank12
     RDKit          3D

 25 27  0  0  0  0  0  0  0  0999 V2000
   28.6407   -1.6562   -9.4366 C   0  0  0  0  0  0  0  0  0  0  0  0
   27.5481   -0.5299   -8.6433 S   0  0  1  0  0  6  0  0  0  0  0  0
   27.3066   -0.9621   -7.2198 O   0  0  0  0  0  0  0  0  0  0  0  0
   28.1857    0.8305   -8.6684 O   0  0  0  0  0  0  0  0  0  0  0  0
   26.0251   -0.4031   -9.5086 C   0  0  0  0  0  0  0  0  0  0  0  0
   24.8752   -0.8414   -8.8996 C   0  0  0  0  0  0  0  0  0  0  0  0
   23.7059   -0.7197   -9.6201 C   0  0  0  0  0  0  0  0  0  0  0  0
   23.6489   -0.1966  -10.8764 C   0  0  0  0  0  0  0  0  0  0  0  0
   22.4816   -0.0640  -11.6218 O   0  0  0  0  0  0  0  0  0  0  0  0
   21.2215   -0.2637  -11.0568 C   0  0  0  0  0  0  0  0  0  0  0  0
   20.6168    0.8171  -10.4525 C   0  0  0  0  0  0  0  0  0  0  0  0
   19.3715    0.6376   -9.8892 C   0  0  0  0  0  0  0  0  0  0  0  0
   18.7797    1.7111   -9.2933 F   0  0  0  0  0  0  0  0  0  0  0  0
   18.7588   -0.5965   -9.9365 C   0  0  0  0  0  0  0  0  0  0  0  0
   19.3460   -1.6924  -10.5364 C   0  0  0  0  0  0  0  0  0  0  0  0
   18.6975   -2.9777  -10.5802 C   0  0  0  0  0  0  0  0  0  0  0  0
   18.1618   -4.0034  -10.6274 N   0  0  0  0  0  0  0  0  0  0  0  0
   20.5914   -1.4898  -11.0932 C   0  0  0  0  0  0  0  0  0  0  0  0
   24.8248    0.2517  -11.4995 C   0  0  0  0  0  0  0  0  0  0  0  0
   25.9894    0.1355  -10.7938 C   0  0  0  0  0  0  0  0  0  0  0  0
   27.1345    0.6529  -11.5987 C   0  0  2  0  0  0  0  0  0  0  0  0
   27.4468    1.9529  -11.2404 O   0  0  0  0  0  0  0  0  0  0  0  0
   26.5491    0.6719  -13.0174 C   0  0  1  0  0  0  0  0  0  0  0  0
   26.8684   -0.5173  -13.6525 F   0  0  0  0  0  0  0  0  0  0  0  0
   25.0774    0.8554  -12.8253 C   0  0  0  0  0  0  0  0  0  0  0  0
  1  2  1  6
  2  3  2  0
  2  4  2  0
  2  5  1  6
  5  6  2  0
  6  7  1  0
  7  8  2  0
  8  9  1  0
  9 10  1  0
 10 11  2  0
 11 12  1  0
 12 13  1  0
 12 14  2  0
 14 15  1  0
 15 16  1  0
 16 17  3  0
 15 18  2  0
  8 19  1  0
 19 20  2  0
 20 21  1  0
 21 22  1  1
 21 23  1  0
 23 24  1  1
 23 25  1  0
 20  5  1  0
 18 10  1  0
 25 19  1  6
M  END
$$$$
