_rank20
     RDKit          3D

 17 18  0  0  0  0  0  0  0  0999 V2000
   22.1422   -1.0556  -14.0095 C   0  0  0  0  0  0  0  0  0  0  0  0
   22.5602   -1.5457  -12.6274 C   0  0  1  0  0  0  0  0  0  0  0  0
   23.3312   -0.4434  -11.9686 C   0  0  0  0  0  0  0  0  0  0  0  0
   23.3889   -0.6966  -10.5532 N   0  0  0  0  0  0  0  0  0  0  0  0
   24.4522   -0.4626   -9.6785 C   0  0  0  0  0  0  0  0  0  0  0  0
   24.2671   -0.2702   -8.3164 C   0  0  0  0  0  0  0  0  0  0  0  0
   25.3144   -0.0413   -7.4610 C   0  0  0  0  0  0  0  0  0  0  0  0
   25.0802    0.1388   -6.1461 F   0  0  0  0  0  0  0  0  0  0  0  0
   26.6107    0.0101   -7.9094 C   0  0  0  0  0  0  0  0  0  0  0  0
   26.8359   -0.1766   -9.2594 C   0  0  0  0  0  0  0  0  0  0  0  0
   28.1938   -0.1256   -9.7422 C   0  0  0  0  0  0  0  0  0  0  0  0
   29.2904   -0.0758  -10.1229 N   0  0  0  0  0  0  0  0  0  0  0  0
   25.7796   -0.4060  -10.1126 C   0  0  0  0  0  0  0  0  0  0  0  0
   21.8482   -1.3560  -10.1660 S   0  0  2  0  0  6  0  0  0  0  0  0
   21.0262   -0.3034   -9.5247 O   0  0  0  0  0  0  0  0  0  0  0  0
   21.9437   -2.6065   -9.3487 O   0  0  0  0  0  0  0  0  0  0  0  0
   21.2823   -1.7316  -11.8329 C   0  0  0  0  0  0  0  0  0  0  0  0
  2  1  1  6
  2  3  1  0
  3  4  1  1
  4  5  1  0
  5  6  2  0
  6  7  1  0
  7  8  1  0
  7  9  2  0
  9 10  1  0
 10 11  1  0
 11 12  3  0
 10 13  2  0
 14  4  1  6
 14 15  2  0
 14 16  2  0
 17 14  1  1
 17  2  1  0
 13  5  1  0
M  END
$$$$
