_rank1
     RDKit          3D

 17 18  0  0  0  0  0  0  0  0999 V2000
   27.5155   -0.2444   -8.1912 C   0  0  0  0  0  0  0  0  0  0  0  0
   26.5819   -0.8232   -9.2487 C   0  0  1  0  0  0  0  0  0  0  0  0
   25.2334   -0.2005   -9.0540 C   0  0  0  0  0  0  0  0  0  0  0  0
   24.4525   -0.3980  -10.2464 N   0  0  0  0  0  0  0  0  0  0  0  0
   23.0862   -0.6689  -10.3468 C   0  0  0  0  0  0  0  0  0  0  0  0
   22.5997   -1.8603  -10.8670 C   0  0  0  0  0  0  0  0  0  0  0  0
   21.2569   -2.1222  -10.9631 C   0  0  0  0  0  0  0  0  0  0  0  0
   20.8368   -3.2956  -11.4758 F   0  0  0  0  0  0  0  0  0  0  0  0
   20.3157   -1.2138  -10.5470 C   0  0  0  0  0  0  0  0  0  0  0  0
   20.7606   -0.0155  -10.0232 C   0  0  0  0  0  0  0  0  0  0  0  0
   19.7812    0.9464   -9.5819 C   0  0  0  0  0  0  0  0  0  0  0  0
   18.9836    1.7126   -9.2257 N   0  0  0  0  0  0  0  0  0  0  0  0
   22.1104    0.2408   -9.9297 C   0  0  0  0  0  0  0  0  0  0  0  0
   25.5770   -0.2252  -11.5366 S   0  0  2  0  0  6  0  0  0  0  0  0
   25.4045    1.1153  -12.1435 O   0  0  0  0  0  0  0  0  0  0  0  0
   25.4875   -1.3378  -12.5340 O   0  0  0  0  0  0  0  0  0  0  0  0
   27.1032   -0.3456  -10.5899 C   0  0  0  0  0  0  0  0  0  0  0  0
  2  1  1  1
  2  3  1  0
  3  4  1  1
  4  5  1  0
  5  6  2  0
  6  7  1  0
  7  8  1  0
  7  9  2  0
  9 10  1  0
 10 11  1  0
 11 12  3  0
 10 13  2  0
 14  4  1  1
 14 15  2  0
 14 16  2  0
 17 14  1  1
 17  2  1  0
 13  5  1  0
M  END
$$$$
