_rank11
     RDKit          3D

 17 18  0  0  0  0  0  0  0  0999 V2000
   27.9478   -0.3627  -11.7944 C   0  0  0  0  0  0  0  0  0  0  0  0
   26.7483    0.1336  -10.9945 C   0  0  1  0  0  0  0  0  0  0  0  0
   25.6376   -0.8539  -11.1816 C   0  0  0  0  0  0  0  0  0  0  0  0
   24.6551   -0.6511  -10.1500 N   0  0  0  0  0  0  0  0  0  0  0  0
   23.2654   -0.7436  -10.2531 C   0  0  0  0  0  0  0  0  0  0  0  0
   22.6307   -1.8586  -10.7827 C   0  0  0  0  0  0  0  0  0  0  0  0
   21.2655   -1.9452  -10.8814 C   0  0  0  0  0  0  0  0  0  0  0  0
   20.6990   -3.0510  -11.4033 F   0  0  0  0  0  0  0  0  0  0  0  0
   20.4482   -0.9266  -10.4587 C   0  0  0  0  0  0  0  0  0  0  0  0
   21.0426    0.2006   -9.9255 C   0  0  0  0  0  0  0  0  0  0  0  0
   20.1942    1.2770   -9.4772 C   0  0  0  0  0  0  0  0  0  0  0  0
   19.5191    2.1525   -9.1195 N   0  0  0  0  0  0  0  0  0  0  0  0
   22.4139    0.2808   -9.8294 C   0  0  0  0  0  0  0  0  0  0  0  0
   25.5714   -0.2669   -8.7459 S   0  0  2  0  0  6  0  0  0  0  0  0
   25.6344   -1.4637   -7.8750 O   0  0  0  0  0  0  0  0  0  0  0  0
   25.0610    0.9491   -8.0376 O   0  0  0  0  0  0  0  0  0  0  0  0
   27.1525    0.0775   -9.5344 C   0  0  0  0  0  0  0  0  0  0  0  0
  2  1  1  6
  2  3  1  0
  3  4  1  1
  4  5  1  0
  5  6  2  0
  6  7  1  0
  7  8  1  0
  7  9  2  0
  9 10  1  0
 10 11  1  0
 11 12  3  0
 10 13  2  0
 14  4  1  6
 14 15  2  0
 14 16  2  0
 17 14  1  1
 17  2  1  0
 13  5  1  0
M  END
$$$$
