_rank10
     RDKit          3D

 17 18  0  0  0  0  0  0  0  0999 V2000
   27.3788    1.4577  -11.4489 C   0  0  0  0  0  0  0  0  0  0  0  0
   26.3628    1.0043  -10.4062 C   0  0  1  0  0  0  0  0  0  0  0  0
   25.2337    0.3388  -11.1316 C   0  0  0  0  0  0  0  0  0  0  0  0
   24.4753   -0.4457  -10.1936 N   0  0  0  0  0  0  0  0  0  0  0  0
   23.0924   -0.6349  -10.1478 C   0  0  0  0  0  0  0  0  0  0  0  0
   22.5132   -1.8963  -10.1473 C   0  0  0  0  0  0  0  0  0  0  0  0
   21.1544   -2.0772  -10.1016 C   0  0  0  0  0  0  0  0  0  0  0  0
   20.6428   -3.3240  -10.1028 F   0  0  0  0  0  0  0  0  0  0  0  0
   20.2887   -1.0131  -10.0536 C   0  0  0  0  0  0  0  0  0  0  0  0
   20.8271    0.2590  -10.0526 C   0  0  0  0  0  0  0  0  0  0  0  0
   19.9275    1.3849  -10.0015 C   0  0  0  0  0  0  0  0  0  0  0  0
   19.2035    2.2922   -9.9481 N   0  0  0  0  0  0  0  0  0  0  0  0
   22.1923    0.4334  -10.0986 C   0  0  0  0  0  0  0  0  0  0  0  0
   25.6525   -1.1090   -9.1292 S   0  0  2  0  0  6  0  0  0  0  0  0
   25.8824   -2.5260   -9.4954 O   0  0  0  0  0  0  0  0  0  0  0  0
   25.2963   -0.9252   -7.6869 O   0  0  0  0  0  0  0  0  0  0  0  0
   27.0476   -0.0623   -9.5744 C   0  0  0  0  0  0  0  0  0  0  0  0
  2  1  1  6
  2  3  1  0
  3  4  1  1
  4  5  1  0
  5  6  2  0
  6  7  1  0
  7  8  1  0
  7  9  2  0
  9 10  1  0
 10 11  1  0
 11 12  3  0
 10 13  2  0
 14  4  1  6
 14 15  2  0
 14 16  2  0
 17 14  1  1
 17  2  1  0
 13  5  1  0
M  END
$$$$
