_rank5
     RDKit          3D

 17 18  0  0  0  0  0  0  0  0999 V2000
   27.5278    0.8107  -12.1216 C   0  0  0  0  0  0  0  0  0  0  0  0
   26.3851    0.8841  -11.1146 C   0  0  1  0  0  0  0  0  0  0  0  0
   25.3217   -0.0704  -11.5640 C   0  0  0  0  0  0  0  0  0  0  0  0
   24.4347   -0.3324  -10.4617 N   0  0  0  0  0  0  0  0  0  0  0  0
   23.0495   -0.5075  -10.4928 C   0  0  0  0  0  0  0  0  0  0  0  0
   22.4591   -1.7123  -10.8483 C   0  0  0  0  0  0  0  0  0  0  0  0
   21.0982   -1.8797  -10.8768 C   0  0  0  0  0  0  0  0  0  0  0  0
   20.5756   -3.0710  -11.2288 F   0  0  0  0  0  0  0  0  0  0  0  0
   20.2412   -0.8575  -10.5531 C   0  0  0  0  0  0  0  0  0  0  0  0
   20.7908    0.3579  -10.1938 C   0  0  0  0  0  0  0  0  0  0  0  0
   19.9005    1.4391   -9.8507 C   0  0  0  0  0  0  0  0  0  0  0  0
   19.1759    2.3024   -9.5683 N   0  0  0  0  0  0  0  0  0  0  0  0
   22.1581    0.5189  -10.1673 C   0  0  0  0  0  0  0  0  0  0  0  0
   25.4598   -0.3854   -9.0814 S   0  0  2  0  0  6  0  0  0  0  0  0
   25.6784   -1.8011   -8.7035 O   0  0  0  0  0  0  0  0  0  0  0  0
   24.9503    0.4528   -7.9506 O   0  0  0  0  0  0  0  0  0  0  0  0
   26.9330    0.3550   -9.8037 C   0  0  0  0  0  0  0  0  0  0  0  0
  2  1  1  6
  2  3  1  0
  3  4  1  1
  4  5  1  0
  5  6  2  0
  6  7  1  0
  7  8  1  0
  7  9  2  0
  9 10  1  0
 10 11  1  0
 11 12  3  0
 10 13  2  0
 14  4  1  6
 14 15  2  0
 14 16  2  0
 17 14  1  1
 17  2  1  0
 13  5  1  0
M  END
$$$$
