_rank4
     RDKit          3D

 17 18  0  0  0  0  0  0  0  0999 V2000
   27.4105    0.6079  -12.3371 C   0  0  0  0  0  0  0  0  0  0  0  0
   26.2986    0.8211  -11.3157 C   0  0  1  0  0  0  0  0  0  0  0  0
   25.2140   -0.1687  -11.6118 C   0  0  0  0  0  0  0  0  0  0  0  0
   24.3575   -0.2795  -10.4608 N   0  0  0  0  0  0  0  0  0  0  0  0
   22.9704   -0.4396  -10.4309 C   0  0  0  0  0  0  0  0  0  0  0  0
   22.3483   -1.6170  -10.8222 C   0  0  0  0  0  0  0  0  0  0  0  0
   20.9857   -1.7700  -10.7905 C   0  0  0  0  0  0  0  0  0  0  0  0
   20.4316   -2.9347  -11.1810 F   0  0  0  0  0  0  0  0  0  0  0  0
   20.1587   -0.7596  -10.3671 C   0  0  0  0  0  0  0  0  0  0  0  0
   20.7404    0.4285   -9.9693 C   0  0  0  0  0  0  0  0  0  0  0  0
   19.8818    1.4970   -9.5216 C   0  0  0  0  0  0  0  0  0  0  0  0
   19.1825    2.3497   -9.1555 N   0  0  0  0  0  0  0  0  0  0  0  0
   22.1092    0.5751  -10.0037 C   0  0  0  0  0  0  0  0  0  0  0  0
   25.4222   -0.1723   -9.1141 S   0  0  2  0  0  6  0  0  0  0  0  0
   25.6391   -1.5322   -8.5679 O   0  0  0  0  0  0  0  0  0  0  0  0
   24.9537    0.8072   -8.0836 O   0  0  0  0  0  0  0  0  0  0  0  0
   26.8801    0.4533   -9.9646 C   0  0  0  0  0  0  0  0  0  0  0  0
  2  1  1  6
  2  3  1  0
  3  4  1  1
  4  5  1  0
  5  6  2  0
  6  7  1  0
  7  8  1  0
  7  9  2  0
  9 10  1  0
 10 11  1  0
 11 12  3  0
 10 13  2  0
 14  4  1  6
 14 15  2  0
 14 16  2  0
 17 14  1  1
 17  2  1  0
 13  5  1  0
M  END
$$$$
