_rank7
     RDKit          3D

 17 18  0  0  0  0  0  0  0  0999 V2000
   27.4334    0.7506  -11.9898 C   0  0  0  0  0  0  0  0  0  0  0  0
   26.2996    0.7532  -10.9702 C   0  0  1  0  0  0  0  0  0  0  0  0
   25.2426   -0.1864  -11.4640 C   0  0  0  0  0  0  0  0  0  0  0  0
   24.3691   -0.5211  -10.3706 N   0  0  0  0  0  0  0  0  0  0  0  0
   22.9857   -0.7102  -10.3994 C   0  0  0  0  0  0  0  0  0  0  0  0
   22.4032   -1.8729  -10.8844 C   0  0  0  0  0  0  0  0  0  0  0  0
   21.0439   -2.0544  -10.9102 C   0  0  0  0  0  0  0  0  0  0  0  0
   20.5290   -3.2031  -11.3912 F   0  0  0  0  0  0  0  0  0  0  0  0
   20.1811   -1.0890  -10.4545 C   0  0  0  0  0  0  0  0  0  0  0  0
   20.7228    0.0831   -9.9638 C   0  0  0  0  0  0  0  0  0  0  0  0
   19.8263    1.1043   -9.4813 C   0  0  0  0  0  0  0  0  0  0  0  0
   19.0990    1.9282   -9.1038 N   0  0  0  0  0  0  0  0  0  0  0  0
   22.0884    0.2586   -9.9409 C   0  0  0  0  0  0  0  0  0  0  0  0
   25.4078   -0.6407   -9.0047 S   0  0  2  0  0  6  0  0  0  0  0  0
   25.6456   -2.0731   -8.7102 O   0  0  0  0  0  0  0  0  0  0  0  0
   24.8998    0.1257   -7.8235 O   0  0  0  0  0  0  0  0  0  0  0  0
   26.8658    0.1567   -9.6966 C   0  0  0  0  0  0  0  0  0  0  0  0
  2  1  1  6
  2  3  1  0
  3  4  1  1
  4  5  1  0
  5  6  2  0
  6  7  1  0
  7  8  1  0
  7  9  2  0
  9 10  1  0
 10 11  1  0
 11 12  3  0
 10 13  2  0
 14  4  1  6
 14 15  2  0
 14 16  2  0
 17 14  1  1
 17  2  1  0
 13  5  1  0
M  END
$$$$
