_rank17
     RDKit          3D

 17 18  0  0  0  0  0  0  0  0999 V2000
   29.1873   -0.5762  -10.4230 C   0  0  0  0  0  0  0  0  0  0  0  0
   27.7967    0.0076  -10.1981 C   0  0  1  0  0  0  0  0  0  0  0  0
   26.7968   -1.0376  -10.5874 C   0  0  0  0  0  0  0  0  0  0  0  0
   25.5193   -0.6941  -10.0212 N   0  0  0  0  0  0  0  0  0  0  0  0
   24.2536   -0.8542  -10.5894 C   0  0  0  0  0  0  0  0  0  0  0  0
   23.9769   -0.5001  -11.9026 C   0  0  0  0  0  0  0  0  0  0  0  0
   22.7324   -0.6598  -12.4565 C   0  0  0  0  0  0  0  0  0  0  0  0
   22.5164   -0.3002  -13.7372 F   0  0  0  0  0  0  0  0  0  0  0  0
   21.6868   -1.1820  -11.7367 C   0  0  0  0  0  0  0  0  0  0  0  0
   21.9227   -1.5466  -10.4253 C   0  0  0  0  0  0  0  0  0  0  0  0
   20.8321   -2.0973   -9.6593 C   0  0  0  0  0  0  0  0  0  0  0  0
   19.9463   -2.5410   -9.0521 N   0  0  0  0  0  0  0  0  0  0  0  0
   23.1747   -1.3835   -9.8756 C   0  0  0  0  0  0  0  0  0  0  0  0
   25.8909   -0.0372   -8.4755 S   0  0  2  0  0  6  0  0  0  0  0  0
   25.6090   -1.0605   -7.4419 O   0  0  0  0  0  0  0  0  0  0  0  0
   25.1970    1.2641   -8.2187 O   0  0  0  0  0  0  0  0  0  0  0  0
   27.6574    0.2222   -8.7037 C   0  0  0  0  0  0  0  0  0  0  0  0
  2  1  1  1
  2  3  1  0
  3  4  1  1
  4  5  1  0
  5  6  2  0
  6  7  1  0
  7  8  1  0
  7  9  2  0
  9 10  1  0
 10 11  1  0
 11 12  3  0
 10 13  2  0
 14  4  1  6
 14 15  2  0
 14 16  2  0
 17 14  1  1
 17  2  1  0
 13  5  1  0
M  END
$$$$
