_rank19
     RDKit          3D

 17 18  0  0  0  0  0  0  0  0999 V2000
   28.6330    0.5020  -11.5215 C   0  0  0  0  0  0  0  0  0  0  0  0
   27.3280    0.7028  -10.7587 C   0  0  1  0  0  0  0  0  0  0  0  0
   26.4152   -0.4305  -11.1141 C   0  0  0  0  0  0  0  0  0  0  0  0
   25.3631   -0.5059  -10.1353 N   0  0  0  0  0  0  0  0  0  0  0  0
   24.0170   -0.8173  -10.3390 C   0  0  0  0  0  0  0  0  0  0  0  0
   23.2188   -1.3586   -9.3408 C   0  0  0  0  0  0  0  0  0  0  0  0
   21.8971   -1.6623   -9.5453 C   0  0  0  0  0  0  0  0  0  0  0  0
   21.1656   -2.1861   -8.5419 F   0  0  0  0  0  0  0  0  0  0  0  0
   21.2888   -1.4457  -10.7566 C   0  0  0  0  0  0  0  0  0  0  0  0
   22.0506   -0.9080  -11.7758 C   0  0  0  0  0  0  0  0  0  0  0  0
   21.4223   -0.6751  -13.0527 C   0  0  0  0  0  0  0  0  0  0  0  0
   20.9162   -0.4995  -14.0838 N   0  0  0  0  0  0  0  0  0  0  0  0
   23.3771   -0.6054  -11.5635 C   0  0  0  0  0  0  0  0  0  0  0  0
   26.1294   -0.1266   -8.6428 S   0  0  2  0  0  6  0  0  0  0  0  0
   26.3556   -1.3823   -7.8899 O   0  0  0  0  0  0  0  0  0  0  0  0
   25.3825    0.9044   -7.8553 O   0  0  0  0  0  0  0  0  0  0  0  0
   27.6639    0.5591   -9.2873 C   0  0  0  0  0  0  0  0  0  0  0  0
  2  1  1  6
  2  3  1  0
  3  4  1  1
  4  5  1  0
  5  6  2  0
  6  7  1  0
  7  8  1  0
  7  9  2  0
  9 10  1  0
 10 11  1  0
 11 12  3  0
 10 13  2  0
 14  4  1  6
 14 15  2  0
 14 16  2  0
 17 14  1  1
 17  2  1  0
 13  5  1  0
M  END
$$$$
