_rank15
     RDKit          3D

 17 18  0  0  0  0  0  0  0  0999 V2000
   27.7062    0.8858  -12.1481 C   0  0  0  0  0  0  0  0  0  0  0  0
   26.7031    0.8519  -11.0002 C   0  0  1  0  0  0  0  0  0  0  0  0
   25.5556   -0.0120  -11.4251 C   0  0  0  0  0  0  0  0  0  0  0  0
   24.8051   -0.3964  -10.2591 N   0  0  0  0  0  0  0  0  0  0  0  0
   23.4212   -0.5355  -10.1320 C   0  0  0  0  0  0  0  0  0  0  0  0
   22.8396   -1.5820   -9.4299 C   0  0  0  0  0  0  0  0  0  0  0  0
   21.4799   -1.7141   -9.3072 C   0  0  0  0  0  0  0  0  0  0  0  0
   20.9659   -2.7491   -8.6138 F   0  0  0  0  0  0  0  0  0  0  0  0
   20.6158   -0.8121   -9.8762 C   0  0  0  0  0  0  0  0  0  0  0  0
   21.1567    0.2439  -10.5835 C   0  0  0  0  0  0  0  0  0  0  0  0
   20.2588    1.1986  -11.1851 C   0  0  0  0  0  0  0  0  0  0  0  0
   19.5357    1.9746  -11.6596 N   0  0  0  0  0  0  0  0  0  0  0  0
   22.5227    0.3705  -10.7027 C   0  0  0  0  0  0  0  0  0  0  0  0
   25.9931   -0.6520   -9.0417 S   0  0  2  0  0  6  0  0  0  0  0  0
   26.2027   -2.1095   -8.8781 O   0  0  0  0  0  0  0  0  0  0  0  0
   25.6628    0.0420   -7.7572 O   0  0  0  0  0  0  0  0  0  0  0  0
   27.3910    0.1440   -9.8494 C   0  0  0  0  0  0  0  0  0  0  0  0
  2  1  1  6
  2  3  1  0
  3  4  1  1
  4  5  1  0
  5  6  2  0
  6  7  1  0
  7  8  1  0
  7  9  2  0
  9 10  1  0
 10 11  1  0
 11 12  3  0
 10 13  2  0
 14  4  1  6
 14 15  2  0
 14 16  2  0
 17 14  1  1
 17  2  1  0
 13  5  1  0
M  END
$$$$
