_rank13
     RDKit          3D

 17 18  0  0  0  0  0  0  0  0999 V2000
   18.9842    1.0229  -11.2558 C   0  0  0  0  0  0  0  0  0  0  0  0
   20.0729   -0.0441  -11.2902 C   0  0  1  0  0  0  0  0  0  0  0  0
   21.3674    0.6159  -10.9262 C   0  0  0  0  0  0  0  0  0  0  0  0
   22.3187   -0.3976  -10.5541 N   0  0  0  0  0  0  0  0  0  0  0  0
   23.6893   -0.4325  -10.8203 C   0  0  0  0  0  0  0  0  0  0  0  0
   24.1984   -0.8101  -12.0551 C   0  0  0  0  0  0  0  0  0  0  0  0
   25.5453   -0.8423  -12.3121 C   0  0  0  0  0  0  0  0  0  0  0  0
   25.9877   -1.2161  -13.5289 F   0  0  0  0  0  0  0  0  0  0  0  0
   26.4681   -0.5006  -11.3551 C   0  0  0  0  0  0  0  0  0  0  0  0
   26.0003   -0.1191  -10.1126 C   0  0  0  0  0  0  0  0  0  0  0  0
   26.9602    0.2430   -9.0994 C   0  0  0  0  0  0  0  0  0  0  0  0
   27.7328    0.5466   -8.2862 N   0  0  0  0  0  0  0  0  0  0  0  0
   24.6466   -0.0890   -9.8615 C   0  0  0  0  0  0  0  0  0  0  0  0
   21.3940   -1.5698   -9.7000 S   0  0  2  0  0  6  0  0  0  0  0  0
   21.6318   -1.3993   -8.2477 O   0  0  0  0  0  0  0  0  0  0  0  0
   21.6480   -2.9657  -10.1771 O   0  0  0  0  0  0  0  0  0  0  0  0
   19.7471   -1.0264  -10.1822 C   0  0  0  0  0  0  0  0  0  0  0  0
  2  1  1  1
  2  3  1  0
  3  4  1  1
  4  5  1  0
  5  6  2  0
  6  7  1  0
  7  8  1  0
  7  9  2  0
  9 10  1  0
 10 11  1  0
 11 12  3  0
 10 13  2  0
 14  4  1  6
 14 15  2  0
 14 16  2  0
 17 14  1  1
 17  2  1  0
 13  5  1  0
M  END
$$$$
