_rank14
     RDKit          3D

 17 18  0  0  0  0  0  0  0  0999 V2000
   27.8444    0.1565   -7.6789 C   0  0  0  0  0  0  0  0  0  0  0  0
   27.2377   -0.5336   -8.8958 C   0  0  1  0  0  0  0  0  0  0  0  0
   25.8296   -0.0437   -9.0408 C   0  0  0  0  0  0  0  0  0  0  0  0
   25.3671   -0.3420  -10.3703 N   0  0  0  0  0  0  0  0  0  0  0  0
   24.0917   -0.7491  -10.7682 C   0  0  0  0  0  0  0  0  0  0  0  0
   23.7332   -0.8752  -12.1031 C   0  0  0  0  0  0  0  0  0  0  0  0
   22.4796   -1.2760  -12.4891 C   0  0  0  0  0  0  0  0  0  0  0  0
   22.1827   -1.3828  -13.7992 F   0  0  0  0  0  0  0  0  0  0  0  0
   21.5058   -1.5758  -11.5693 C   0  0  0  0  0  0  0  0  0  0  0  0
   21.8242   -1.4622  -10.2299 C   0  0  0  0  0  0  0  0  0  0  0  0
   20.8096   -1.7754   -9.2543 C   0  0  0  0  0  0  0  0  0  0  0  0
   19.9966   -2.0391   -8.4671 N   0  0  0  0  0  0  0  0  0  0  0  0
   23.0849   -1.0593   -9.8495 C   0  0  0  0  0  0  0  0  0  0  0  0
   26.7387   -0.0852  -11.3760 S   0  0  2  0  0  6  0  0  0  0  0  0
   26.5890    1.2189  -12.0631 O   0  0  0  0  0  0  0  0  0  0  0  0
   26.9847   -1.2214  -12.3190 O   0  0  0  0  0  0  0  0  0  0  0  0
   28.0091   -0.0343  -10.1018 C   0  0  0  0  0  0  0  0  0  0  0  0
  2  1  1  1
  2  3  1  0
  3  4  1  1
  4  5  1  0
  5  6  2  0
  6  7  1  0
  7  8  1  0
  7  9  2  0
  9 10  1  0
 10 11  1  0
 11 12  3  0
 10 13  2  0
 14  4  1  1
 14 15  2  0
 14 16  2  0
 17 14  1  1
 17  2  1  0
 13  5  1  0
M  END
$$$$
