_rank2
     RDKit          3D

 17 18  0  0  0  0  0  0  0  0999 V2000
   27.6375    0.3233   -8.4871 C   0  0  0  0  0  0  0  0  0  0  0  0
   26.7057   -0.4033   -9.4508 C   0  0  1  0  0  0  0  0  0  0  0  0
   25.3865    0.3061   -9.4289 C   0  0  0  0  0  0  0  0  0  0  0  0
   24.6309   -0.0791  -10.5913 N   0  0  0  0  0  0  0  0  0  0  0  0
   23.2557   -0.3015  -10.6906 C   0  0  0  0  0  0  0  0  0  0  0  0
   22.7259   -1.4180  -11.3223 C   0  0  0  0  0  0  0  0  0  0  0  0
   21.3745   -1.6325  -11.4169 C   0  0  0  0  0  0  0  0  0  0  0  0
   20.9117   -2.7338  -12.0408 F   0  0  0  0  0  0  0  0  0  0  0  0
   20.4676   -0.7483  -10.8881 C   0  0  0  0  0  0  0  0  0  0  0  0
   20.9562    0.3759  -10.2512 C   0  0  0  0  0  0  0  0  0  0  0  0
   20.0131    1.3117   -9.6908 C   0  0  0  0  0  0  0  0  0  0  0  0
   19.2554    2.0614   -9.2281 N   0  0  0  0  0  0  0  0  0  0  0  0
   22.3143    0.5849  -10.1599 C   0  0  0  0  0  0  0  0  0  0  0  0
   25.7994   -0.2072  -11.8471 S   0  0  2  0  0  6  0  0  0  0  0  0
   25.7146    0.9994  -12.7026 O   0  0  0  0  0  0  0  0  0  0  0  0
   25.6807   -1.4843  -12.6188 O   0  0  0  0  0  0  0  0  0  0  0  0
   27.2895   -0.2145  -10.8373 C   0  0  0  0  0  0  0  0  0  0  0  0
  2  1  1  1
  2  3  1  0
  3  4  1  1
  4  5  1  0
  5  6  2  0
  6  7  1  0
  7  8  1  0
  7  9  2  0
  9 10  1  0
 10 11  1  0
 11 12  3  0
 10 13  2  0
 14  4  1  1
 14 15  2  0
 14 16  2  0
 17 14  1  1
 17  2  1  0
 13  5  1  0
M  END
$$$$
