_rank18
     RDKit          3D

 17 18  0  0  0  0  0  0  0  0999 V2000
   28.1252    0.9515  -12.0727 C   0  0  0  0  0  0  0  0  0  0  0  0
   27.1372    0.8607  -10.9148 C   0  0  1  0  0  0  0  0  0  0  0  0
   26.0341   -0.0635  -11.3304 C   0  0  0  0  0  0  0  0  0  0  0  0
   25.3175   -0.4906  -10.1580 N   0  0  0  0  0  0  0  0  0  0  0  0
   23.9446   -0.7050  -10.0173 C   0  0  0  0  0  0  0  0  0  0  0  0
   23.2858   -0.5417   -8.8066 C   0  0  0  0  0  0  0  0  0  0  0  0
   21.9372   -0.7529   -8.6734 C   0  0  0  0  0  0  0  0  0  0  0  0
   21.3458   -0.5799   -7.4749 F   0  0  0  0  0  0  0  0  0  0  0  0
   21.1616   -1.1397   -9.7378 C   0  0  0  0  0  0  0  0  0  0  0  0
   21.7811   -1.3128  -10.9603 C   0  0  0  0  0  0  0  0  0  0  0  0
   20.9764   -1.7182  -12.0862 C   0  0  0  0  0  0  0  0  0  0  0  0
   20.3329   -2.0358  -13.0000 N   0  0  0  0  0  0  0  0  0  0  0  0
   23.1355   -1.0991  -11.0869 C   0  0  0  0  0  0  0  0  0  0  0  0
   26.5299   -0.6836   -8.9532 S   0  0  2  0  0  6  0  0  0  0  0  0
   26.8202   -2.1278   -8.7955 O   0  0  0  0  0  0  0  0  0  0  0  0
   26.1754   -0.0111   -7.6636 O   0  0  0  0  0  0  0  0  0  0  0  0
   27.8742    0.1890   -9.7728 C   0  0  0  0  0  0  0  0  0  0  0  0
  2  1  1  6
  2  3  1  0
  3  4  1  1
  4  5  1  0
  5  6  2  0
  6  7  1  0
  7  8  1  0
  7  9  2  0
  9 10  1  0
 10 11  1  0
 11 12  3  0
 10 13  2  0
 14  4  1  6
 14 15  2  0
 14 16  2  0
 17 14  1  1
 17  2  1  0
 13  5  1  0
M  END
$$$$
