_rank13
     RDKit          3D

 25 27  0  0  0  0  0  0  0  0999 V2000
   28.6967   -1.6621   -9.5827 C   0  0  0  0  0  0  0  0  0  0  0  0
   27.5730   -0.6284   -8.6461 S   0  0  2  0  0  6  0  0  0  0  0  0
   28.2110    0.6881   -8.3344 O   0  0  0  0  0  0  0  0  0  0  0  0
   27.3352   -1.3103   -7.3266 O   0  0  0  0  0  0  0  0  0  0  0  0
   26.1070   -0.3759   -9.5302 C   0  0  0  0  0  0  0  0  0  0  0  0
   24.9144   -0.7852   -8.9732 C   0  0  0  0  0  0  0  0  0  0  0  0
   23.7071   -0.6271   -9.5977 C   0  0  0  0  0  0  0  0  0  0  0  0
   23.7033   -0.0318  -10.8344 C   0  0  0  0  0  0  0  0  0  0  0  0
   22.5343    0.1698  -11.5399 O   0  0  0  0  0  0  0  0  0  0  0  0
   21.2814   -0.0519  -10.9719 C   0  0  0  0  0  0  0  0  0  0  0  0
   20.5037    0.9723  -10.4652 C   0  0  0  0  0  0  0  0  0  0  0  0
   19.2612    0.7212   -9.9061 C   0  0  0  0  0  0  0  0  0  0  0  0
   18.4991    1.7360   -9.4081 F   0  0  0  0  0  0  0  0  0  0  0  0
   18.7567   -0.5568   -9.8353 C   0  0  0  0  0  0  0  0  0  0  0  0
   19.5274   -1.5956  -10.3405 C   0  0  0  0  0  0  0  0  0  0  0  0
   19.0467   -2.9401  -10.2907 C   0  0  0  0  0  0  0  0  0  0  0  0
   18.6353   -4.0392  -10.2389 N   0  0  0  0  0  0  0  0  0  0  0  0
   20.7698   -1.3366  -10.8985 C   0  0  0  0  0  0  0  0  0  0  0  0
   24.8819    0.4010  -11.4438 C   0  0  0  0  0  0  0  0  0  0  0  0
   26.0909    0.2270  -10.7861 C   0  0  0  0  0  0  0  0  0  0  0  0
   27.1896    0.7643  -11.6335 C   0  0  2  0  0  0  0  0  0  0  0  0
   27.4001    2.1248  -11.4158 O   0  0  0  0  0  0  0  0  0  0  0  0
   26.5711    0.6532  -13.0328 C   0  0  2  0  0  0  0  0  0  0  0  0
   27.2330    1.5170  -13.8554 F   0  0  0  0  0  0  0  0  0  0  0  0
   25.1454    1.0607  -12.7495 C   0  0  0  0  0  0  0  0  0  0  0  0
  1  2  1  1
  2  3  2  0
  2  4  2  0
  2  5  1  6
  5  6  2  0
  6  7  1  0
  7  8  2  0
  8  9  1  0
  9 10  1  0
 10 11  2  0
 11 12  1  0
 12 13  1  0
 12 14  2  0
 14 15  1  0
 15 16  1  0
 16 17  3  0
 15 18  2  0
  8 19  1  0
 19 20  2  0
 20 21  1  0
 21 22  1  1
 21 23  1  0
 23 24  1  6
 23 25  1  0
 20  5  1  0
 18 10  1  0
 25 19  1  1
M  END
$$$$
