_rank17
     RDKit          3D

 25 27  0  0  0  0  0  0  0  0999 V2000
   27.1431   -0.0483   -6.7584 C   0  0  0  0  0  0  0  0  0  0  0  0
   27.5131   -0.2488   -8.4996 S   0  0  2  0  0  6  0  0  0  0  0  0
   28.3386   -1.4765   -8.7203 O   0  0  0  0  0  0  0  0  0  0  0  0
   28.3669    0.9191   -8.9112 O   0  0  0  0  0  0  0  0  0  0  0  0
   26.0505   -0.3514   -9.4188 C   0  0  0  0  0  0  0  0  0  0  0  0
   24.9326   -0.9048   -8.8321 C   0  0  0  0  0  0  0  0  0  0  0  0
   23.7339   -1.0274   -9.4808 C   0  0  0  0  0  0  0  0  0  0  0  0
   23.6606   -0.5730  -10.7738 C   0  0  0  0  0  0  0  0  0  0  0  0
   22.4943   -0.6546  -11.5074 O   0  0  0  0  0  0  0  0  0  0  0  0
   21.2390   -0.5383  -10.9138 C   0  0  0  0  0  0  0  0  0  0  0  0
   20.7084    0.6791  -10.5303 C   0  0  0  0  0  0  0  0  0  0  0  0
   19.4570    0.7636   -9.9421 C   0  0  0  0  0  0  0  0  0  0  0  0
   18.9394    1.9675   -9.5662 F   0  0  0  0  0  0  0  0  0  0  0  0
   18.6971   -0.3614   -9.7186 C   0  0  0  0  0  0  0  0  0  0  0  0
   19.2177   -1.5912  -10.0990 C   0  0  0  0  0  0  0  0  0  0  0  0
   18.4665   -2.7882   -9.8885 C   0  0  0  0  0  0  0  0  0  0  0  0
   17.8414   -3.7644   -9.6982 N   0  0  0  0  0  0  0  0  0  0  0  0
   20.4709   -1.6679  -10.6869 C   0  0  0  0  0  0  0  0  0  0  0  0
   24.7621   -0.0045  -11.4152 C   0  0  0  0  0  0  0  0  0  0  0  0
   25.9642    0.1063  -10.7318 C   0  0  0  0  0  0  0  0  0  0  0  0
   26.9754    0.7384  -11.6217 C   0  0  2  0  0  0  0  0  0  0  0  0
   26.9393    2.1298  -11.5482 O   0  0  0  0  0  0  0  0  0  0  0  0
   26.4246    0.3761  -13.0068 C   0  0  2  0  0  0  0  0  0  0  0  0
   26.9482    1.2535  -13.9106 F   0  0  0  0  0  0  0  0  0  0  0  0
   24.9425    0.5529  -12.7813 C   0  0  0  0  0  0  0  0  0  0  0  0
  1  2  1  1
  2  3  2  0
  2  4  2  0
  2  5  1  6
  5  6  2  0
  6  7  1  0
  7  8  2  0
  8  9  1  0
  9 10  1  0
 10 11  2  0
 11 12  1  0
 12 13  1  0
 12 14  2  0
 14 15  1  0
 15 16  1  0
 16 17  3  0
 15 18  2  0
  8 19  1  0
 19 20  2  0
 20 21  1  0
 21 22  1  6
 21 23  1  0
 23 24  1  6
 23 25  1  0
 20  5  1  0
 18 10  1  0
 25 19  1  1
M  END
$$$$
