_rank19
     RDKit          3D

 25 27  0  0  0  0  0  0  0  0999 V2000
   28.5979   -1.8738   -9.3489 C   0  0  0  0  0  0  0  0  0  0  0  0
   27.5424   -0.6775   -8.5343 S   0  0  2  0  0  6  0  0  0  0  0  0
   28.2560    0.6278   -8.3776 O   0  0  0  0  0  0  0  0  0  0  0  0
   27.2786   -1.1891   -7.1446 O   0  0  0  0  0  0  0  0  0  0  0  0
   26.0850   -0.4453   -9.4380 C   0  0  0  0  0  0  0  0  0  0  0  0
   24.8903   -0.8673   -8.8950 C   0  0  0  0  0  0  0  0  0  0  0  0
   23.6893   -0.7256   -9.5353 C   0  0  0  0  0  0  0  0  0  0  0  0
   23.6942   -0.1340  -10.7738 C   0  0  0  0  0  0  0  0  0  0  0  0
   22.5321    0.0516  -11.4949 O   0  0  0  0  0  0  0  0  0  0  0  0
   21.2737   -0.1533  -10.9328 C   0  0  0  0  0  0  0  0  0  0  0  0
   20.2972    0.8250  -10.9206 C   0  0  0  0  0  0  0  0  0  0  0  0
   19.0545    0.5920  -10.3542 C   0  0  0  0  0  0  0  0  0  0  0  0
   18.0958    1.5612  -10.3456 F   0  0  0  0  0  0  0  0  0  0  0  0
   18.7476   -0.6217   -9.7834 C   0  0  0  0  0  0  0  0  0  0  0  0
   19.7192   -1.6137   -9.7885 C   0  0  0  0  0  0  0  0  0  0  0  0
   19.4483   -2.8911   -9.2087 C   0  0  0  0  0  0  0  0  0  0  0  0
   19.2392   -3.9374   -8.7173 N   0  0  0  0  0  0  0  0  0  0  0  0
   20.9606   -1.3732  -10.3571 C   0  0  0  0  0  0  0  0  0  0  0  0
   24.8753    0.3113  -11.3694 C   0  0  0  0  0  0  0  0  0  0  0  0
   26.0777    0.1538  -10.6958 C   0  0  0  0  0  0  0  0  0  0  0  0
   27.1807    0.7018  -11.5307 C   0  0  2  0  0  0  0  0  0  0  0  0
   27.3720    2.0654  -11.3144 O   0  0  0  0  0  0  0  0  0  0  0  0
   26.5816    0.5792  -12.9375 C   0  0  2  0  0  0  0  0  0  0  0  0
   27.2435    1.4486  -13.7541 F   0  0  0  0  0  0  0  0  0  0  0  0
   25.1476    0.9703  -12.6737 C   0  0  0  0  0  0  0  0  0  0  0  0
  1  2  1  1
  2  3  2  0
  2  4  2  0
  2  5  1  6
  5  6  2  0
  6  7  1  0
  7  8  2  0
  8  9  1  0
  9 10  1  0
 10 11  2  0
 11 12  1  0
 12 13  1  0
 12 14  2  0
 14 15  1  0
 15 16  1  0
 16 17  3  0
 15 18  2  0
  8 19  1  0
 19 20  2  0
 20 21  1  0
 21 22  1  1
 21 23  1  0
 23 24  1  6
 23 25  1  0
 20  5  1  0
 18 10  1  0
 25 19  1  1
M  END
$$$$
