_rank10
     RDKit          3D

 25 27  0  0  0  0  0  0  0  0999 V2000
   27.9930    1.1734   -7.8582 C   0  0  0  0  0  0  0  0  0  0  0  0
   27.4462   -0.4476   -8.3893 S   0  0  2  0  0  6  0  0  0  0  0  0
   27.2121   -1.3334   -7.2069 O   0  0  0  0  0  0  0  0  0  0  0  0
   28.5747   -1.0655   -9.1685 O   0  0  0  0  0  0  0  0  0  0  0  0
   25.9949   -0.3185   -9.3229 C   0  0  0  0  0  0  0  0  0  0  0  0
   24.7996   -0.7000   -8.7519 C   0  0  0  0  0  0  0  0  0  0  0  0
   23.6031   -0.6330   -9.4127 C   0  0  0  0  0  0  0  0  0  0  0  0
   23.6135   -0.1620  -10.7018 C   0  0  0  0  0  0  0  0  0  0  0  0
   22.4561   -0.0587  -11.4468 O   0  0  0  0  0  0  0  0  0  0  0  0
   21.1942   -0.2071  -10.8749 C   0  0  0  0  0  0  0  0  0  0  0  0
   20.3768    0.8703  -10.5888 C   0  0  0  0  0  0  0  0  0  0  0  0
   19.1263    0.6917  -10.0200 C   0  0  0  0  0  0  0  0  0  0  0  0
   18.3250    1.7586   -9.7404 F   0  0  0  0  0  0  0  0  0  0  0  0
   18.6529   -0.5647   -9.7193 C   0  0  0  0  0  0  0  0  0  0  0  0
   19.4635   -1.6563  -10.0014 C   0  0  0  0  0  0  0  0  0  0  0  0
   19.0163   -2.9812   -9.7083 C   0  0  0  0  0  0  0  0  0  0  0  0
   18.6415   -4.0722   -9.4864 N   0  0  0  0  0  0  0  0  0  0  0  0
   20.7138   -1.4697  -10.5706 C   0  0  0  0  0  0  0  0  0  0  0  0
   24.7954    0.2374  -11.3274 C   0  0  0  0  0  0  0  0  0  0  0  0
   25.9930    0.1580  -10.6320 C   0  0  0  0  0  0  0  0  0  0  0  0
   27.0981    0.6361  -11.5063 C   0  0  2  0  0  0  0  0  0  0  0  0
   27.2735    2.0161  -11.4194 O   0  0  0  0  0  0  0  0  0  0  0  0
   26.5132    0.3736  -12.8999 C   0  0  2  0  0  0  0  0  0  0  0  0
   27.1738    1.1685  -13.7902 F   0  0  0  0  0  0  0  0  0  0  0  0
   25.0730    0.7722  -12.6863 C   0  0  0  0  0  0  0  0  0  0  0  0
  1  2  1  1
  2  3  2  0
  2  4  2  0
  2  5  1  6
  5  6  2  0
  6  7  1  0
  7  8  2  0
  8  9  1  0
  9 10  1  0
 10 11  2  0
 11 12  1  0
 12 13  1  0
 12 14  2  0
 14 15  1  0
 15 16  1  0
 16 17  3  0
 15 18  2  0
  8 19  1  0
 19 20  2  0
 20 21  1  0
 21 22  1  6
 21 23  1  0
 23 24  1  6
 23 25  1  0
 20  5  1  0
 18 10  1  0
 25 19  1  1
M  END
$$$$
