_rank14
     RDKit          3D

 25 27  0  0  0  0  0  0  0  0999 V2000
   28.3527   -1.9261   -8.6212 C   0  0  0  0  0  0  0  0  0  0  0  0
   27.6670   -0.2714   -8.6457 S   0  0  2  0  0  6  0  0  0  0  0  0
   28.6602    0.6974   -9.2046 O   0  0  0  0  0  0  0  0  0  0  0  0
   27.4324    0.1349   -7.2165 O   0  0  0  0  0  0  0  0  0  0  0  0
   26.2158   -0.2339   -9.5875 C   0  0  0  0  0  0  0  0  0  0  0  0
   25.0557   -0.7424   -9.0438 C   0  0  0  0  0  0  0  0  0  0  0  0
   23.8621   -0.7552   -9.7130 C   0  0  0  0  0  0  0  0  0  0  0  0
   23.8386   -0.2336  -10.9824 C   0  0  0  0  0  0  0  0  0  0  0  0
   22.6813   -0.2034  -11.7339 O   0  0  0  0  0  0  0  0  0  0  0  0
   21.4200   -0.3146  -11.1523 C   0  0  0  0  0  0  0  0  0  0  0  0
   20.8059    0.7397  -10.5026 C   0  0  0  0  0  0  0  0  0  0  0  0
   19.5506    0.5992   -9.9336 C   0  0  0  0  0  0  0  0  0  0  0  0
   18.9505    1.6431   -9.2943 F   0  0  0  0  0  0  0  0  0  0  0  0
   18.8699   -0.5949   -9.9949 C   0  0  0  0  0  0  0  0  0  0  0  0
   19.4749   -1.6626  -10.6445 C   0  0  0  0  0  0  0  0  0  0  0  0
   18.8079   -2.9229  -10.7353 C   0  0  0  0  0  0  0  0  0  0  0  0
   18.2446   -3.9518  -10.7979 N   0  0  0  0  0  0  0  0  0  0  0  0
   20.7314   -1.5145  -11.2115 C   0  0  0  0  0  0  0  0  0  0  0  0
   24.9842    0.2937  -11.5802 C   0  0  0  0  0  0  0  0  0  0  0  0
   26.1798    0.2928  -10.8768 C   0  0  0  0  0  0  0  0  0  0  0  0
   27.2434    0.9017  -11.7207 C   0  0  2  0  0  0  0  0  0  0  0  0
   27.2950    2.2872  -11.5776 O   0  0  0  0  0  0  0  0  0  0  0  0
   26.6928    0.6446  -13.1292 C   0  0  2  0  0  0  0  0  0  0  0  0
   27.2857    1.5301  -13.9809 F   0  0  0  0  0  0  0  0  0  0  0  0
   25.2216    0.9053  -12.9141 C   0  0  0  0  0  0  0  0  0  0  0  0
  1  2  1  1
  2  3  2  0
  2  4  2  0
  2  5  1  6
  5  6  2  0
  6  7  1  0
  7  8  2  0
  8  9  1  0
  9 10  1  0
 10 11  2  0
 11 12  1  0
 12 13  1  0
 12 14  2  0
 14 15  1  0
 15 16  1  0
 16 17  3  0
 15 18  2  0
  8 19  1  0
 19 20  2  0
 20 21  1  0
 21 22  1  1
 21 23  1  0
 23 24  1  6
 23 25  1  0
 20  5  1  0
 18 10  1  0
 25 19  1  1
M  END
$$$$
