_rank12
     RDKit          3D

 25 27  0  0  0  0  0  0  0  0999 V2000
   28.9553   -1.3371   -9.4250 C   0  0  0  0  0  0  0  0  0  0  0  0
   27.7217   -0.3267   -8.6089 S   0  0  2  0  0  6  0  0  0  0  0  0
   28.2469    1.0549   -8.3788 O   0  0  0  0  0  0  0  0  0  0  0  0
   27.4841   -0.9247   -7.2493 O   0  0  0  0  0  0  0  0  0  0  0  0
   26.2767   -0.2552   -9.5583 C   0  0  0  0  0  0  0  0  0  0  0  0
   25.1067   -0.7564   -9.0290 C   0  0  0  0  0  0  0  0  0  0  0  0
   23.9170   -0.7428   -9.7052 C   0  0  0  0  0  0  0  0  0  0  0  0
   23.9079   -0.2015  -10.9664 C   0  0  0  0  0  0  0  0  0  0  0  0
   22.7555   -0.1441  -11.7239 O   0  0  0  0  0  0  0  0  0  0  0  0
   21.5005   -0.4109  -11.1804 C   0  0  0  0  0  0  0  0  0  0  0  0
   20.9539   -1.6804  -11.1612 C   0  0  0  0  0  0  0  0  0  0  0  0
   19.7031   -1.9152  -10.6136 C   0  0  0  0  0  0  0  0  0  0  0  0
   19.1697   -3.1697  -10.5978 F   0  0  0  0  0  0  0  0  0  0  0  0
   18.9601   -0.8932  -10.0692 C   0  0  0  0  0  0  0  0  0  0  0  0
   19.4970    0.3873  -10.0817 C   0  0  0  0  0  0  0  0  0  0  0  0
   18.7644    1.4817   -9.5277 C   0  0  0  0  0  0  0  0  0  0  0  0
   18.1796    2.3915   -9.0694 N   0  0  0  0  0  0  0  0  0  0  0  0
   20.7493    0.6147  -10.6315 C   0  0  0  0  0  0  0  0  0  0  0  0
   25.0638    0.3197  -11.5494 C   0  0  0  0  0  0  0  0  0  0  0  0
   26.2552    0.2918  -10.8394 C   0  0  0  0  0  0  0  0  0  0  0  0
   27.3318    0.8994  -11.6677 C   0  0  2  0  0  0  0  0  0  0  0  0
   27.4009    2.2817  -11.5029 O   0  0  0  0  0  0  0  0  0  0  0  0
   26.7861    0.6715  -13.0831 C   0  0  2  0  0  0  0  0  0  0  0  0
   27.3956    1.5620  -13.9176 F   0  0  0  0  0  0  0  0  0  0  0  0
   25.3172    0.9485  -12.8723 C   0  0  0  0  0  0  0  0  0  0  0  0
  1  2  1  1
  2  3  2  0
  2  4  2  0
  2  5  1  6
  5  6  2  0
  6  7  1  0
  7  8  2  0
  8  9  1  0
  9 10  1  0
 10 11  2  0
 11 12  1  0
 12 13  1  0
 12 14  2  0
 14 15  1  0
 15 16  1  0
 16 17  3  0
 15 18  2  0
  8 19  1  0
 19 20  2  0
 20 21  1  0
 21 22  1  1
 21 23  1  0
 23 24  1  6
 23 25  1  0
 20  5  1  0
 18 10  1  0
 25 19  1  1
M  END
$$$$
