_rank2
     RDKit          3D

 25 27  0  0  0  0  0  0  0  0999 V2000
   28.4720   -1.7456   -8.8545 C   0  0  0  0  0  0  0  0  0  0  0  0
   27.5449   -0.2369   -8.5843 S   0  0  2  0  0  6  0  0  0  0  0  0
   28.3860    0.9577   -8.9053 O   0  0  0  0  0  0  0  0  0  0  0  0
   27.2378   -0.1598   -7.1138 O   0  0  0  0  0  0  0  0  0  0  0  0
   26.1138   -0.2261   -9.5572 C   0  0  0  0  0  0  0  0  0  0  0  0
   24.9366   -0.6956   -9.0152 C   0  0  0  0  0  0  0  0  0  0  0  0
   23.7569   -0.7255   -9.7081 C   0  0  0  0  0  0  0  0  0  0  0  0
   23.7658   -0.2627  -11.0002 C   0  0  0  0  0  0  0  0  0  0  0  0
   22.6246   -0.2538  -11.7765 O   0  0  0  0  0  0  0  0  0  0  0  0
   21.3635   -0.5022  -11.2383 C   0  0  0  0  0  0  0  0  0  0  0  0
   20.7550   -1.7411  -11.3125 C   0  0  0  0  0  0  0  0  0  0  0  0
   19.4998   -1.9582  -10.7678 C   0  0  0  0  0  0  0  0  0  0  0  0
   18.9052   -3.1826  -10.8443 F   0  0  0  0  0  0  0  0  0  0  0  0
   18.8138   -0.9483  -10.1334 C   0  0  0  0  0  0  0  0  0  0  0  0
   19.4132    0.3016  -10.0515 C   0  0  0  0  0  0  0  0  0  0  0  0
   18.7412    1.3822   -9.4019 C   0  0  0  0  0  0  0  0  0  0  0  0
   18.1708    2.2620   -8.8723 N   0  0  0  0  0  0  0  0  0  0  0  0
   20.6695    0.5113  -10.5990 C   0  0  0  0  0  0  0  0  0  0  0  0
   24.9298    0.2233  -11.5973 C   0  0  0  0  0  0  0  0  0  0  0  0
   26.1108    0.2410  -10.8697 C   0  0  0  0  0  0  0  0  0  0  0  0
   27.1989    0.7981  -11.7181 C   0  0  2  0  0  0  0  0  0  0  0  0
   27.2647    2.1880  -11.6376 O   0  0  0  0  0  0  0  0  0  0  0  0
   26.6741    0.4828  -13.1246 C   0  0  2  0  0  0  0  0  0  0  0  0
   27.2952    1.3212  -14.0033 F   0  0  0  0  0  0  0  0  0  0  0  0
   25.2021    0.7700  -12.9526 C   0  0  0  0  0  0  0  0  0  0  0  0
  1  2  1  1
  2  3  2  0
  2  4  2  0
  2  5  1  6
  5  6  2  0
  6  7  1  0
  7  8  2  0
  8  9  1  0
  9 10  1  0
 10 11  2  0
 11 12  1  0
 12 13  1  0
 12 14  2  0
 14 15  1  0
 15 16  1  0
 16 17  3  0
 15 18  2  0
  8 19  1  0
 19 20  2  0
 20 21  1  0
 21 22  1  6
 21 23  1  0
 23 24  1  6
 23 25  1  0
 20  5  1  0
 18 10  1  0
 25 19  1  1
M  END
$$$$
