_rank15
     RDKit          3D

 25 27  0  0  0  0  0  0  0  0999 V2000
   27.2338   -0.1308   -6.7974 C   0  0  0  0  0  0  0  0  0  0  0  0
   27.6198   -0.4277   -8.5212 S   0  0  2  0  0  6  0  0  0  0  0  0
   28.3598   -1.7184   -8.6761 O   0  0  0  0  0  0  0  0  0  0  0  0
   28.5619    0.6595   -8.9606 O   0  0  0  0  0  0  0  0  0  0  0  0
   26.1705   -0.4646   -9.4661 C   0  0  0  0  0  0  0  0  0  0  0  0
   25.0150   -0.9521   -8.8942 C   0  0  0  0  0  0  0  0  0  0  0  0
   23.8232   -1.0196   -9.5634 C   0  0  0  0  0  0  0  0  0  0  0  0
   23.7968   -0.5770  -10.8624 C   0  0  0  0  0  0  0  0  0  0  0  0
   22.6410   -0.6061  -11.6163 O   0  0  0  0  0  0  0  0  0  0  0  0
   21.3778   -0.6487  -11.0299 C   0  0  0  0  0  0  0  0  0  0  0  0
   20.8186    0.4417  -10.3902 C   0  0  0  0  0  0  0  0  0  0  0  0
   19.5598    0.3695   -9.8162 C   0  0  0  0  0  0  0  0  0  0  0  0
   19.0139    1.4486   -9.1867 F   0  0  0  0  0  0  0  0  0  0  0  0
   18.8209   -0.7902   -9.8622 C   0  0  0  0  0  0  0  0  0  0  0  0
   19.3704   -1.8935  -10.5017 C   0  0  0  0  0  0  0  0  0  0  0  0
   18.6418   -3.1203  -10.5766 C   0  0  0  0  0  0  0  0  0  0  0  0
   18.0256   -4.1183  -10.6417 N   0  0  0  0  0  0  0  0  0  0  0  0
   20.6307   -1.8138  -11.0738 C   0  0  0  0  0  0  0  0  0  0  0  0
   24.9377   -0.0741  -11.4894 C   0  0  0  0  0  0  0  0  0  0  0  0
   26.1316   -0.0182  -10.7852 C   0  0  0  0  0  0  0  0  0  0  0  0
   27.1902    0.5501  -11.6630 C   0  0  2  0  0  0  0  0  0  0  0  0
   27.2257    1.9422  -11.6050 O   0  0  0  0  0  0  0  0  0  0  0  0
   26.6460    0.2010  -13.0540 C   0  0  2  0  0  0  0  0  0  0  0  0
   27.2307    1.0394  -13.9574 F   0  0  0  0  0  0  0  0  0  0  0  0
   25.1713    0.4573  -12.8578 C   0  0  0  0  0  0  0  0  0  0  0  0
  1  2  1  1
  2  3  2  0
  2  4  2  0
  2  5  1  6
  5  6  2  0
  6  7  1  0
  7  8  2  0
  8  9  1  0
  9 10  1  0
 10 11  2  0
 11 12  1  0
 12 13  1  0
 12 14  2  0
 14 15  1  0
 15 16  1  0
 16 17  3  0
 15 18  2  0
  8 19  1  0
 19 20  2  0
 20 21  1  0
 21 22  1  6
 21 23  1  0
 23 24  1  6
 23 25  1  0
 20  5  1  0
 18 10  1  0
 25 19  1  1
M  END
$$$$
