_rank20
     RDKit          3D

 25 27  0  0  0  0  0  0  0  0999 V2000
   28.4932    0.6450   -8.2577 C   0  0  0  0  0  0  0  0  0  0  0  0
   27.6443   -0.8278   -8.8226 S   0  0  2  0  0  6  0  0  0  0  0  0
   27.3358   -1.7280   -7.6685 O   0  0  0  0  0  0  0  0  0  0  0  0
   28.5993   -1.5809   -9.7077 O   0  0  0  0  0  0  0  0  0  0  0  0
   26.1814   -0.4032   -9.6436 C   0  0  0  0  0  0  0  0  0  0  0  0
   24.9738   -0.6991   -9.0485 C   0  0  0  0  0  0  0  0  0  0  0  0
   23.7675   -0.4013   -9.6221 C   0  0  0  0  0  0  0  0  0  0  0  0
   23.7807    0.2202  -10.8458 C   0  0  0  0  0  0  0  0  0  0  0  0
   22.6142    0.5592  -11.5010 O   0  0  0  0  0  0  0  0  0  0  0  0
   21.3775    0.0404  -11.1230 C   0  0  0  0  0  0  0  0  0  0  0  0
   20.2526    0.8309  -10.9798 C   0  0  0  0  0  0  0  0  0  0  0  0
   19.0358    0.2864  -10.6026 C   0  0  0  0  0  0  0  0  0  0  0  0
   17.9301    1.0717  -10.4631 F   0  0  0  0  0  0  0  0  0  0  0  0
   18.9033   -1.0609  -10.3570 C   0  0  0  0  0  0  0  0  0  0  0  0
   20.0252   -1.8670  -10.4971 C   0  0  0  0  0  0  0  0  0  0  0  0
   19.9381   -3.2722  -10.2541 C   0  0  0  0  0  0  0  0  0  0  0  0
   19.8461   -4.4261  -10.0542 N   0  0  0  0  0  0  0  0  0  0  0  0
   21.2396   -1.3150  -10.8749 C   0  0  0  0  0  0  0  0  0  0  0  0
   24.9750    0.5421  -11.4922 C   0  0  0  0  0  0  0  0  0  0  0  0
   26.1824    0.2277  -10.8858 C   0  0  0  0  0  0  0  0  0  0  0  0
   27.2996    0.6675  -11.7648 C   0  0  2  0  0  0  0  0  0  0  0  0
   27.6596    1.9931  -11.5287 O   0  0  0  0  0  0  0  0  0  0  0  0
   26.6217    0.6546  -13.1408 C   0  0  2  0  0  0  0  0  0  0  0  0
   27.3399    1.4640  -13.9714 F   0  0  0  0  0  0  0  0  0  0  0  0
   25.2581    1.2015  -12.7940 C   0  0  0  0  0  0  0  0  0  0  0  0
  1  2  1  1
  2  3  2  0
  2  4  2  0
  2  5  1  6
  5  6  2  0
  6  7  1  0
  7  8  2  0
  8  9  1  0
  9 10  1  0
 10 11  2  0
 11 12  1  0
 12 13  1  0
 12 14  2  0
 14 15  1  0
 15 16  1  0
 16 17  3  0
 15 18  2  0
  8 19  1  0
 19 20  2  0
 20 21  1  0
 21 22  1  1
 21 23  1  0
 23 24  1  6
 23 25  1  0
 20  5  1  0
 18 10  1  0
 25 19  1  1
M  END
$$$$
