_rank1
     RDKit          3D

 25 27  0  0  0  0  0  0  0  0999 V2000
   29.0368    0.3091   -9.3820 C   0  0  0  0  0  0  0  0  0  0  0  0
   27.6457   -0.3705   -8.4811 S   0  0  2  0  0  6  0  0  0  0  0  0
   27.4456    0.3667   -7.1951 O   0  0  0  0  0  0  0  0  0  0  0  0
   28.0020   -1.7844   -8.1114 O   0  0  0  0  0  0  0  0  0  0  0  0
   26.2067   -0.2832   -9.4382 C   0  0  0  0  0  0  0  0  0  0  0  0
   25.0063   -0.6545   -8.8714 C   0  0  0  0  0  0  0  0  0  0  0  0
   23.8187   -0.6183   -9.5504 C   0  0  0  0  0  0  0  0  0  0  0  0
   23.8438   -0.1901  -10.8542 C   0  0  0  0  0  0  0  0  0  0  0  0
   22.6962   -0.1201  -11.6179 O   0  0  0  0  0  0  0  0  0  0  0  0
   21.4443   -0.4481  -11.1014 C   0  0  0  0  0  0  0  0  0  0  0  0
   20.9062   -1.7169  -11.2072 C   0  0  0  0  0  0  0  0  0  0  0  0
   19.6584   -2.0135  -10.6836 C   0  0  0  0  0  0  0  0  0  0  0  0
   19.1333   -3.2670  -10.7913 F   0  0  0  0  0  0  0  0  0  0  0  0
   18.9098   -1.0556  -10.0392 C   0  0  0  0  0  0  0  0  0  0  0  0
   19.4382    0.2235   -9.9257 C   0  0  0  0  0  0  0  0  0  0  0  0
   18.6995    1.2525   -9.2646 C   0  0  0  0  0  0  0  0  0  0  0  0
   18.0754    2.0927   -8.7313 N   0  0  0  0  0  0  0  0  0  0  0  0
   20.6876    0.5128  -10.4523 C   0  0  0  0  0  0  0  0  0  0  0  0
   25.0314    0.1972  -11.4764 C   0  0  0  0  0  0  0  0  0  0  0  0
   26.2198    0.1498  -10.7624 C   0  0  0  0  0  0  0  0  0  0  0  0
   27.3336    0.6070  -11.6368 C   0  0  2  0  0  0  0  0  0  0  0  0
   27.4981    1.9904  -11.5933 O   0  0  0  0  0  0  0  0  0  0  0  0
   26.7701    0.2942  -13.0288 C   0  0  2  0  0  0  0  0  0  0  0  0
   27.4374    1.0642  -13.9358 F   0  0  0  0  0  0  0  0  0  0  0  0
   25.3242    0.6890  -12.8483 C   0  0  0  0  0  0  0  0  0  0  0  0
  1  2  1  1
  2  3  2  0
  2  4  2  0
  2  5  1  6
  5  6  2  0
  6  7  1  0
  7  8  2  0
  8  9  1  0
  9 10  1  0
 10 11  2  0
 11 12  1  0
 12 13  1  0
 12 14  2  0
 14 15  1  0
 15 16  1  0
 16 17  3  0
 15 18  2  0
  8 19  1  0
 19 20  2  0
 20 21  1  0
 21 22  1  6
 21 23  1  0
 23 24  1  6
 23 25  1  0
 20  5  1  0
 18 10  1  0
 25 19  1  1
M  END
$$$$
