_rank18
     RDKit          3D

 25 27  0  0  0  0  0  0  0  0999 V2000
   28.7235   -1.7424   -9.0900 C   0  0  0  0  0  0  0  0  0  0  0  0
   27.5775   -0.5603   -8.3843 S   0  0  2  0  0  6  0  0  0  0  0  0
   28.2135    0.7902   -8.2876 O   0  0  0  0  0  0  0  0  0  0  0  0
   27.2949   -1.0008   -6.9741 O   0  0  0  0  0  0  0  0  0  0  0  0
   26.1412   -0.4656   -9.3448 C   0  0  0  0  0  0  0  0  0  0  0  0
   24.9590   -0.9466   -8.8241 C   0  0  0  0  0  0  0  0  0  0  0  0
   23.7749   -0.9139   -9.5093 C   0  0  0  0  0  0  0  0  0  0  0  0
   23.7845   -0.3738  -10.7711 C   0  0  0  0  0  0  0  0  0  0  0  0
   22.6391   -0.2980  -11.5375 O   0  0  0  0  0  0  0  0  0  0  0  0
   21.3690   -0.4457  -10.9837 C   0  0  0  0  0  0  0  0  0  0  0  0
   20.7156    0.5869  -10.3376 C   0  0  0  0  0  0  0  0  0  0  0  0
   19.4524    0.4102   -9.7967 C   0  0  0  0  0  0  0  0  0  0  0  0
   18.8134    1.4329   -9.1608 F   0  0  0  0  0  0  0  0  0  0  0  0
   18.8029   -0.7996   -9.8832 C   0  0  0  0  0  0  0  0  0  0  0  0
   19.4476   -1.8458  -10.5296 C   0  0  0  0  0  0  0  0  0  0  0  0
   18.8140   -3.1212  -10.6460 C   0  0  0  0  0  0  0  0  0  0  0  0
   18.3096   -4.1768  -10.7513 N   0  0  0  0  0  0  0  0  0  0  0  0
   20.7117   -1.6616  -11.0684 C   0  0  0  0  0  0  0  0  0  0  0  0
   24.9534    0.1272  -11.3458 C   0  0  0  0  0  0  0  0  0  0  0  0
   26.1387    0.0802  -10.6266 C   0  0  0  0  0  0  0  0  0  0  0  0
   27.2316    0.6688  -11.4472 C   0  0  2  0  0  0  0  0  0  0  0  0
   27.3226    2.0499  -11.2832 O   0  0  0  0  0  0  0  0  0  0  0  0
   26.6930    0.4485  -12.8665 C   0  0  2  0  0  0  0  0  0  0  0  0
   27.3237    1.3277  -13.6972 F   0  0  0  0  0  0  0  0  0  0  0  0
   25.2274    0.7503  -12.6673 C   0  0  0  0  0  0  0  0  0  0  0  0
  1  2  1  1
  2  3  2  0
  2  4  2  0
  2  5  1  6
  5  6  2  0
  6  7  1  0
  7  8  2  0
  8  9  1  0
  9 10  1  0
 10 11  2  0
 11 12  1  0
 12 13  1  0
 12 14  2  0
 14 15  1  0
 15 16  1  0
 16 17  3  0
 15 18  2  0
  8 19  1  0
 19 20  2  0
 20 21  1  0
 21 22  1  1
 21 23  1  0
 23 24  1  6
 23 25  1  0
 20  5  1  0
 18 10  1  0
 25 19  1  1
M  END
$$$$
