_rank9
     RDKit          3D

 25 27  0  0  0  0  0  0  0  0999 V2000
   28.1864    1.1136   -8.0027 C   0  0  0  0  0  0  0  0  0  0  0  0
   27.7541   -0.4783   -8.7011 S   0  0  2  0  0  6  0  0  0  0  0  0
   27.5691   -1.4918   -7.6166 O   0  0  0  0  0  0  0  0  0  0  0  0
   28.9285   -0.9393   -9.5201 O   0  0  0  0  0  0  0  0  0  0  0  0
   26.3060   -0.3517   -9.6399 C   0  0  0  0  0  0  0  0  0  0  0  0
   25.1022   -0.6821   -9.0551 C   0  0  0  0  0  0  0  0  0  0  0  0
   23.9075   -0.6130   -9.7188 C   0  0  0  0  0  0  0  0  0  0  0  0
   23.9285   -0.1934  -11.0255 C   0  0  0  0  0  0  0  0  0  0  0  0
   22.7737   -0.0922  -11.7746 O   0  0  0  0  0  0  0  0  0  0  0  0
   21.5296   -0.4611  -11.2671 C   0  0  0  0  0  0  0  0  0  0  0  0
   21.0268   -1.7427  -11.3916 C   0  0  0  0  0  0  0  0  0  0  0  0
   19.7858   -2.0802  -10.8764 C   0  0  0  0  0  0  0  0  0  0  0  0
   19.2957   -3.3461  -11.0026 F   0  0  0  0  0  0  0  0  0  0  0  0
   19.0092   -1.1518  -10.2222 C   0  0  0  0  0  0  0  0  0  0  0  0
   19.5019    0.1397  -10.0898 C   0  0  0  0  0  0  0  0  0  0  0  0
   18.7332    1.1392   -9.4179 C   0  0  0  0  0  0  0  0  0  0  0  0
   18.1114    1.9569   -8.8482 N   0  0  0  0  0  0  0  0  0  0  0  0
   20.7447    0.4701  -10.6080 C   0  0  0  0  0  0  0  0  0  0  0  0
   25.1194    0.1531  -11.6656 C   0  0  0  0  0  0  0  0  0  0  0  0
   26.3150    0.0728  -10.9668 C   0  0  0  0  0  0  0  0  0  0  0  0
   27.4308    0.4899  -11.8585 C   0  0  2  0  0  0  0  0  0  0  0  0
   27.6388    1.8677  -11.8259 O   0  0  0  0  0  0  0  0  0  0  0  0
   26.8395    0.1867  -13.2410 C   0  0  2  0  0  0  0  0  0  0  0  0
   27.5183    0.9301  -14.1615 F   0  0  0  0  0  0  0  0  0  0  0  0
   25.4091    0.6273  -13.0442 C   0  0  0  0  0  0  0  0  0  0  0  0
  1  2  1  1
  2  3  2  0
  2  4  2  0
  2  5  1  6
  5  6  2  0
  6  7  1  0
  7  8  2  0
  8  9  1  0
  9 10  1  0
 10 11  2  0
 11 12  1  0
 12 13  1  0
 12 14  2  0
 14 15  1  0
 15 16  1  0
 16 17  3  0
 15 18  2  0
  8 19  1  0
 19 20  2  0
 20 21  1  0
 21 22  1  6
 21 23  1  0
 23 24  1  6
 23 25  1  0
 20  5  1  0
 18 10  1  0
 25 19  1  1
M  END
$$$$
