_rank16
     RDKit          3D

 25 27  0  0  0  0  0  0  0  0999 V2000
   27.4941   -1.2926   -7.3401 C   0  0  0  0  0  0  0  0  0  0  0  0
   27.7794   -0.4160   -8.8761 S   0  0  2  0  0  6  0  0  0  0  0  0
   28.7868   -1.1402   -9.7116 O   0  0  0  0  0  0  0  0  0  0  0  0
   28.3922    0.9118   -8.5242 O   0  0  0  0  0  0  0  0  0  0  0  0
   26.2996   -0.2453   -9.7568 C   0  0  0  0  0  0  0  0  0  0  0  0
   25.1290   -0.6968   -9.1859 C   0  0  0  0  0  0  0  0  0  0  0  0
   23.9129   -0.6041   -9.8067 C   0  0  0  0  0  0  0  0  0  0  0  0
   23.8770   -0.0326  -11.0540 C   0  0  0  0  0  0  0  0  0  0  0  0
   22.6970    0.1038  -11.7568 O   0  0  0  0  0  0  0  0  0  0  0  0
   21.4533   -0.0644  -11.1514 C   0  0  0  0  0  0  0  0  0  0  0  0
   20.7941    0.9669  -10.5092 C   0  0  0  0  0  0  0  0  0  0  0  0
   19.5577    0.7696   -9.9160 C   0  0  0  0  0  0  0  0  0  0  0  0
   18.9128    1.7911   -9.2842 F   0  0  0  0  0  0  0  0  0  0  0  0
   18.9415   -0.4602   -9.9450 C   0  0  0  0  0  0  0  0  0  0  0  0
   19.5924   -1.5055  -10.5868 C   0  0  0  0  0  0  0  0  0  0  0  0
   18.9929   -2.8011  -10.6444 C   0  0  0  0  0  0  0  0  0  0  0  0
   18.5082   -3.8691  -10.7103 N   0  0  0  0  0  0  0  0  0  0  0  0
   20.8295   -1.3004  -11.1781 C   0  0  0  0  0  0  0  0  0  0  0  0
   25.0324    0.4408  -11.6776 C   0  0  0  0  0  0  0  0  0  0  0  0
   26.2508    0.3329  -11.0234 C   0  0  0  0  0  0  0  0  0  0  0  0
   27.3207    0.9027  -11.8864 C   0  0  2  0  0  0  0  0  0  0  0  0
   27.4714    2.2751  -11.6947 O   0  0  0  0  0  0  0  0  0  0  0  0
   26.7014    0.7384  -13.2801 C   0  0  2  0  0  0  0  0  0  0  0  0
   27.3203    1.6154  -14.1218 F   0  0  0  0  0  0  0  0  0  0  0  0
   25.2603    1.0873  -12.9966 C   0  0  0  0  0  0  0  0  0  0  0  0
  1  2  1  1
  2  3  2  0
  2  4  2  0
  2  5  1  6
  5  6  2  0
  6  7  1  0
  7  8  2  0
  8  9  1  0
  9 10  1  0
 10 11  2  0
 11 12  1  0
 12 13  1  0
 12 14  2  0
 14 15  1  0
 15 16  1  0
 16 17  3  0
 15 18  2  0
  8 19  1  0
 19 20  2  0
 20 21  1  0
 21 22  1  1
 21 23  1  0
 23 24  1  6
 23 25  1  0
 20  5  1  0
 18 10  1  0
 25 19  1  1
M  END
$$$$
