_rank13
     RDKit          3D

 26 28  0  0  0  0  0  0  0  0999 V2000
   28.6687   -1.9369   -8.1244 C   0  0  0  0  0  0  0  0  0  0  0  0
   28.0385   -0.2966   -8.3442 S   0  0  2  0  0  6  0  0  0  0  0  0
   29.0621    0.5396   -9.0709 O   0  0  0  0  0  0  0  0  0  0  0  0
   27.7685    0.3684   -7.0354 O   0  0  0  0  0  0  0  0  0  0  0  0
   26.5431   -0.2960   -9.2677 C   0  0  0  0  0  0  0  0  0  0  0  0
   25.3470   -0.6378   -8.6661 C   0  0  0  0  0  0  0  0  0  0  0  0
   24.1831   -0.6262   -9.4284 C   0  0  0  0  0  0  0  0  0  0  0  0
   24.1822   -0.2843  -10.7668 C   0  0  0  0  0  0  0  0  0  0  0  0
   22.9876   -0.3089  -11.4124 O   0  0  0  0  0  0  0  0  0  0  0  0
   21.7260   -0.4909  -10.9606 C   0  0  0  0  0  0  0  0  0  0  0  0
   21.1381   -1.7409  -11.1949 C   0  0  0  0  0  0  0  0  0  0  0  0
   19.8747   -2.0442  -10.7880 C   0  0  0  0  0  0  0  0  0  0  0  0
   19.3399   -3.2848  -11.0406 F   0  0  0  0  0  0  0  0  0  0  0  0
   19.1135   -1.1104  -10.1162 C   0  0  0  0  0  0  0  0  0  0  0  0
   19.6549    0.1312   -9.8657 C   0  0  0  0  0  0  0  0  0  0  0  0
   18.8432    1.0824   -9.1664 C   0  0  0  0  0  0  0  0  0  0  0  0
   18.1719    1.8399   -8.6051 N   0  0  0  0  0  0  0  0  0  0  0  0
   20.9375    0.4156  -10.2876 C   0  0  0  0  0  0  0  0  0  0  0  0
   25.4109    0.0487  -11.3133 C   0  0  0  0  0  0  0  0  0  0  0  0
   26.5897    0.0511  -10.5984 C   0  0  0  0  0  0  0  0  0  0  0  0
   27.7236    0.4504  -11.5157 C   0  0  2  0  0  0  0  0  0  0  0  0
   27.7741    1.8198  -11.6010 O   0  0  0  0  0  0  0  0  0  0  0  0
   27.1484   -0.1204  -12.8274 C   0  0  2  0  0  0  0  0  0  0  0  0
   27.7942    0.3521  -13.9198 F   0  0  0  0  0  0  0  0  0  0  0  0
   25.7276    0.4502  -12.6896 C   0  0  2  0  0  0  0  0  0  0  0  0
   25.8600    1.8446  -12.6956 F   0  0  0  0  0  0  0  0  0  0  0  0
  1  2  1  6
  2  3  2  0
  2  4  2  0
  2  5  1  6
  5  6  2  0
  6  7  1  0
  7  8  2  0
  8  9  1  0
  9 10  1  0
 10 11  2  0
 11 12  1  0
 12 13  1  0
 12 14  2  0
 14 15  1  0
 15 16  1  0
 16 17  3  0
 15 18  2  0
  8 19  1  0
 19 20  2  0
 20 21  1  0
 21 22  1  6
 21 23  1  0
 23 24  1  6
 23 25  1  0
 25 26  1  1
 20  5  1  0
 18 10  1  0
 25 19  1  0
M  END
$$$$
