_rank18
     RDKit          3D

 26 28  0  0  0  0  0  0  0  0999 V2000
   29.3291   -1.6865   -9.5725 C   0  0  0  0  0  0  0  0  0  0  0  0
   28.0623   -0.7482   -8.7657 S   0  0  2  0  0  6  0  0  0  0  0  0
   28.5198    0.6807   -8.6105 O   0  0  0  0  0  0  0  0  0  0  0  0
   27.7746   -1.2745   -7.3989 O   0  0  0  0  0  0  0  0  0  0  0  0
   26.5605   -0.7693   -9.6786 C   0  0  0  0  0  0  0  0  0  0  0  0
   25.4699   -1.4824   -9.2186 C   0  0  0  0  0  0  0  0  0  0  0  0
   24.2975   -1.4762   -9.9677 C   0  0  0  0  0  0  0  0  0  0  0  0
   24.1861   -0.7809  -11.1562 C   0  0  0  0  0  0  0  0  0  0  0  0
   22.9943   -0.8471  -11.8040 O   0  0  0  0  0  0  0  0  0  0  0  0
   21.7457   -1.1212  -11.3623 C   0  0  0  0  0  0  0  0  0  0  0  0
   20.9860   -2.0251  -12.1164 C   0  0  0  0  0  0  0  0  0  0  0  0
   19.7173   -2.3806  -11.7732 C   0  0  0  0  0  0  0  0  0  0  0  0
   19.0102   -3.2718  -12.5444 F   0  0  0  0  0  0  0  0  0  0  0  0
   19.1235   -1.8511  -10.6463 C   0  0  0  0  0  0  0  0  0  0  0  0
   19.8371   -0.9585   -9.8772 C   0  0  0  0  0  0  0  0  0  0  0  0
   19.1970   -0.4236   -8.7123 C   0  0  0  0  0  0  0  0  0  0  0  0
   18.6787   -0.0094   -7.7640 N   0  0  0  0  0  0  0  0  0  0  0  0
   21.1214   -0.6134  -10.2449 C   0  0  0  0  0  0  0  0  0  0  0  0
   25.3122   -0.0854  -11.5652 C   0  0  0  0  0  0  0  0  0  0  0  0
   26.4950   -0.0624  -10.8574 C   0  0  0  0  0  0  0  0  0  0  0  0
   27.5026    0.7814  -11.6053 C   0  0  2  0  0  0  0  0  0  0  0  0
   27.2970    2.1045  -11.3020 O   0  0  0  0  0  0  0  0  0  0  0  0
   26.9962    0.5022  -13.0345 C   0  0  2  0  0  0  0  0  0  0  0  0
   27.5046    1.3725  -13.9387 F   0  0  0  0  0  0  0  0  0  0  0  0
   25.5004    0.7359  -12.7676 C   0  0  2  0  0  0  0  0  0  0  0  0
   25.3734    2.0758  -12.3797 F   0  0  0  0  0  0  0  0  0  0  0  0
  1  2  1  6
  2  3  2  0
  2  4  2  0
  2  5  1  6
  5  6  2  0
  6  7  1  0
  7  8  2  0
  8  9  1  0
  9 10  1  0
 10 11  2  0
 11 12  1  0
 12 13  1  0
 12 14  2  0
 14 15  1  0
 15 16  1  0
 16 17  3  0
 15 18  2  0
  8 19  1  0
 19 20  2  0
 20 21  1  0
 21 22  1  1
 21 23  1  0
 23 24  1  6
 23 25  1  0
 25 26  1  1
 20  5  1  0
 18 10  1  0
 25 19  1  0
M  END
$$$$
