_rank1
     RDKit          3D

 26 28  0  0  0  0  0  0  0  0999 V2000
   28.2327    1.0046   -8.0395 C   0  0  0  0  0  0  0  0  0  0  0  0
   27.8105   -0.5839   -8.6988 S   0  0  2  0  0  6  0  0  0  0  0  0
   27.6542   -1.5697   -7.5679 O   0  0  0  0  0  0  0  0  0  0  0  0
   28.8791   -1.1065   -9.6004 O   0  0  0  0  0  0  0  0  0  0  0  0
   26.3120   -0.5267   -9.6155 C   0  0  0  0  0  0  0  0  0  0  0  0
   25.1364   -1.0043   -9.0685 C   0  0  0  0  0  0  0  0  0  0  0  0
   23.9693   -0.9428   -9.8236 C   0  0  0  0  0  0  0  0  0  0  0  0
   23.9456   -0.4201  -11.1021 C   0  0  0  0  0  0  0  0  0  0  0  0
   22.7502   -0.4120  -11.7466 O   0  0  0  0  0  0  0  0  0  0  0  0
   21.4829   -0.5340  -11.2905 C   0  0  0  0  0  0  0  0  0  0  0  0
   20.8104   -1.7272  -11.5854 C   0  0  0  0  0  0  0  0  0  0  0  0
   19.5328   -1.9675  -11.1806 C   0  0  0  0  0  0  0  0  0  0  0  0
   18.9138   -3.1539  -11.4939 F   0  0  0  0  0  0  0  0  0  0  0  0
   18.8417   -1.0233  -10.4502 C   0  0  0  0  0  0  0  0  0  0  0  0
   19.4673    0.1638  -10.1392 C   0  0  0  0  0  0  0  0  0  0  0  0
   18.7270    1.1272   -9.3797 C   0  0  0  0  0  0  0  0  0  0  0  0
   18.1129    1.8996   -8.7750 N   0  0  0  0  0  0  0  0  0  0  0  0
   20.7626    0.3848  -10.5601 C   0  0  0  0  0  0  0  0  0  0  0  0
   25.1545    0.0426  -11.5957 C   0  0  0  0  0  0  0  0  0  0  0  0
   26.3354    0.0022  -10.8856 C   0  0  0  0  0  0  0  0  0  0  0  0
   27.4446    0.5772  -11.7375 C   0  0  2  0  0  0  0  0  0  0  0  0
   27.4303    1.9461  -11.6331 O   0  0  0  0  0  0  0  0  0  0  0  0
   26.8903    0.1661  -13.1161 C   0  0  2  0  0  0  0  0  0  0  0  0
   27.5076    0.8145  -14.1320 F   0  0  0  0  0  0  0  0  0  0  0  0
   25.4450    0.6445  -12.9031 C   0  0  2  0  0  0  0  0  0  0  0  0
   25.5117    2.0311  -12.7165 F   0  0  0  0  0  0  0  0  0  0  0  0
  1  2  1  6
  2  3  2  0
  2  4  2  0
  2  5  1  6
  5  6  2  0
  6  7  1  0
  7  8  2  0
  8  9  1  0
  9 10  1  0
 10 11  2  0
 11 12  1  0
 12 13  1  0
 12 14  2  0
 14 15  1  0
 15 16  1  0
 16 17  3  0
 15 18  2  0
  8 19  1  0
 19 20  2  0
 20 21  1  0
 21 22  1  6
 21 23  1  0
 23 24  1  6
 23 25  1  0
 25 26  1  1
 20  5  1  0
 18 10  1  0
 25 19  1  0
M  END
$$$$
