_rank9
     RDKit          3D

 26 28  0  0  0  0  0  0  0  0999 V2000
   27.9482   -1.8641   -7.5234 C   0  0  0  0  0  0  0  0  0  0  0  0
   27.9461   -0.5254   -8.6827 S   0  0  2  0  0  6  0  0  0  0  0  0
   29.0594   -0.7256   -9.6804 O   0  0  0  0  0  0  0  0  0  0  0  0
   28.1824    0.7855   -8.0090 O   0  0  0  0  0  0  0  0  0  0  0  0
   26.4192   -0.4198   -9.5468 C   0  0  0  0  0  0  0  0  0  0  0  0
   25.2396   -0.8000   -8.9356 C   0  0  0  0  0  0  0  0  0  0  0  0
   24.0499   -0.7027   -9.6504 C   0  0  0  0  0  0  0  0  0  0  0  0
   24.0074   -0.2386  -10.9508 C   0  0  0  0  0  0  0  0  0  0  0  0
   22.7905   -0.1877  -11.5517 O   0  0  0  0  0  0  0  0  0  0  0  0
   21.5493   -0.4653  -11.0918 C   0  0  0  0  0  0  0  0  0  0  0  0
   20.8557    0.5745  -10.4587 C   0  0  0  0  0  0  0  0  0  0  0  0
   19.6004    0.4178   -9.9553 C   0  0  0  0  0  0  0  0  0  0  0  0
   18.9592    1.4675   -9.3421 F   0  0  0  0  0  0  0  0  0  0  0  0
   18.9544   -0.7970  -10.0536 C   0  0  0  0  0  0  0  0  0  0  0  0
   19.6019   -1.8453  -10.6693 C   0  0  0  0  0  0  0  0  0  0  0  0
   18.9085   -3.0960  -10.7581 C   0  0  0  0  0  0  0  0  0  0  0  0
   18.3558   -4.1088  -10.8475 N   0  0  0  0  0  0  0  0  0  0  0  0
   20.8739   -1.6627  -11.1721 C   0  0  0  0  0  0  0  0  0  0  0  0
   25.2213    0.1274  -11.5091 C   0  0  0  0  0  0  0  0  0  0  0  0
   26.4244    0.0482  -10.8407 C   0  0  0  0  0  0  0  0  0  0  0  0
   27.5317    0.5157  -11.7584 C   0  0  2  0  0  0  0  0  0  0  0  0
   27.6017    1.8863  -11.7193 O   0  0  0  0  0  0  0  0  0  0  0  0
   26.9012    0.0762  -13.0950 C   0  0  2  0  0  0  0  0  0  0  0  0
   27.5157    0.6391  -14.1623 F   0  0  0  0  0  0  0  0  0  0  0  0
   25.4957    0.6502  -12.8534 C   0  0  2  0  0  0  0  0  0  0  0  0
   25.6508    2.0374  -12.7360 F   0  0  0  0  0  0  0  0  0  0  0  0
  1  2  1  6
  2  3  2  0
  2  4  2  0
  2  5  1  6
  5  6  2  0
  6  7  1  0
  7  8  2  0
  8  9  1  0
  9 10  1  0
 10 11  2  0
 11 12  1  0
 12 13  1  0
 12 14  2  0
 14 15  1  0
 15 16  1  0
 16 17  3  0
 15 18  2  0
  8 19  1  0
 19 20  2  0
 20 21  1  0
 21 22  1  6
 21 23  1  0
 23 24  1  6
 23 25  1  0
 25 26  1  1
 20  5  1  0
 18 10  1  0
 25 19  1  0
M  END
$$$$
