_rank4
     RDKit          3D

 26 28  0  0  0  0  0  0  0  0999 V2000
   28.8795    0.9355   -9.3601 C   0  0  0  0  0  0  0  0  0  0  0  0
   27.7067   -0.2241   -8.7152 S   0  0  2  0  0  6  0  0  0  0  0  0
   27.4123    0.1107   -7.2743 O   0  0  0  0  0  0  0  0  0  0  0  0
   28.2374   -1.6188   -8.7487 O   0  0  0  0  0  0  0  0  0  0  0  0
   26.2029   -0.1975   -9.6247 C   0  0  0  0  0  0  0  0  0  0  0  0
   25.0159   -0.5785   -9.0288 C   0  0  0  0  0  0  0  0  0  0  0  0
   23.8450   -0.5448   -9.7796 C   0  0  0  0  0  0  0  0  0  0  0  0
   23.8284   -0.1429  -11.1012 C   0  0  0  0  0  0  0  0  0  0  0  0
   22.6283   -0.1509  -11.7368 O   0  0  0  0  0  0  0  0  0  0  0  0
   21.3720   -0.3589  -11.2815 C   0  0  0  0  0  0  0  0  0  0  0  0
   20.7558    0.7000  -10.6019 C   0  0  0  0  0  0  0  0  0  0  0  0
   19.4940    0.6117  -10.0979 C   0  0  0  0  0  0  0  0  0  0  0  0
   18.9307    1.6777   -9.4381 F   0  0  0  0  0  0  0  0  0  0  0  0
   18.7632   -0.5492  -10.2424 C   0  0  0  0  0  0  0  0  0  0  0  0
   19.3330   -1.6142  -10.9047 C   0  0  0  0  0  0  0  0  0  0  0  0
   18.5524   -2.8080  -11.0408 C   0  0  0  0  0  0  0  0  0  0  0  0
   17.9365   -3.7824  -11.1431 N   0  0  0  0  0  0  0  0  0  0  0  0
   20.6132   -1.5012  -11.4070 C   0  0  0  0  0  0  0  0  0  0  0  0
   25.0487    0.2272  -11.6427 C   0  0  0  0  0  0  0  0  0  0  0  0
   26.2338    0.2097  -10.9388 C   0  0  0  0  0  0  0  0  0  0  0  0
   27.3552    0.6617  -11.8469 C   0  0  2  0  0  0  0  0  0  0  0  0
   27.3913    2.0340  -11.8708 O   0  0  0  0  0  0  0  0  0  0  0  0
   26.7739    0.1446  -13.1780 C   0  0  2  0  0  0  0  0  0  0  0  0
   27.4049    0.6725  -14.2535 F   0  0  0  0  0  0  0  0  0  0  0  0
   25.3487    0.6935  -13.0023 C   0  0  2  0  0  0  0  0  0  0  0  0
   25.4671    2.0881  -12.9464 F   0  0  0  0  0  0  0  0  0  0  0  0
  1  2  1  6
  2  3  2  0
  2  4  2  0
  2  5  1  6
  5  6  2  0
  6  7  1  0
  7  8  2  0
  8  9  1  0
  9 10  1  0
 10 11  2  0
 11 12  1  0
 12 13  1  0
 12 14  2  0
 14 15  1  0
 15 16  1  0
 16 17  3  0
 15 18  2  0
  8 19  1  0
 19 20  2  0
 20 21  1  0
 21 22  1  6
 21 23  1  0
 23 24  1  6
 23 25  1  0
 25 26  1  1
 20  5  1  0
 18 10  1  0
 25 19  1  0
M  END
$$$$
