_rank7
     RDKit          3D

 26 28  0  0  0  0  0  0  0  0999 V2000
   28.6701    0.7885   -8.2218 C   0  0  0  0  0  0  0  0  0  0  0  0
   27.9448   -0.8065   -8.4792 S   0  0  2  0  0  6  0  0  0  0  0  0
   27.6870   -1.4603   -7.1446 O   0  0  0  0  0  0  0  0  0  0  0  0
   28.8546   -1.7065   -9.2475 O   0  0  0  0  0  0  0  0  0  0  0  0
   26.4282   -0.6933   -9.3604 C   0  0  0  0  0  0  0  0  0  0  0  0
   25.2505   -1.1362   -8.7893 C   0  0  0  0  0  0  0  0  0  0  0  0
   24.0690   -1.0308   -9.5166 C   0  0  0  0  0  0  0  0  0  0  0  0
   24.0330   -0.4979  -10.7906 C   0  0  0  0  0  0  0  0  0  0  0  0
   22.8239   -0.4457  -11.4070 O   0  0  0  0  0  0  0  0  0  0  0  0
   21.5717   -0.6731  -10.9494 C   0  0  0  0  0  0  0  0  0  0  0  0
   21.0588   -1.9670  -11.1096 C   0  0  0  0  0  0  0  0  0  0  0  0
   19.8122   -2.3181  -10.6895 C   0  0  0  0  0  0  0  0  0  0  0  0
   19.3518   -3.6007  -10.8683 F   0  0  0  0  0  0  0  0  0  0  0  0
   18.9936   -1.3912  -10.0782 C   0  0  0  0  0  0  0  0  0  0  0  0
   19.4606   -0.1075   -9.9016 C   0  0  0  0  0  0  0  0  0  0  0  0
   18.5903    0.8354   -9.2641 C   0  0  0  0  0  0  0  0  0  0  0  0
   17.9014    1.6103   -8.7498 N   0  0  0  0  0  0  0  0  0  0  0  0
   20.7275    0.2250  -10.3355 C   0  0  0  0  0  0  0  0  0  0  0  0
   25.2447   -0.0712  -11.3090 C   0  0  0  0  0  0  0  0  0  0  0  0
   26.4398   -0.1557  -10.6270 C   0  0  0  0  0  0  0  0  0  0  0  0
   27.5474    0.3891  -11.5005 C   0  0  2  0  0  0  0  0  0  0  0  0
   27.5805    1.7570  -11.3865 O   0  0  0  0  0  0  0  0  0  0  0  0
   26.9481    0.0068  -12.8687 C   0  0  2  0  0  0  0  0  0  0  0  0
   27.5628    0.6424  -13.8942 F   0  0  0  0  0  0  0  0  0  0  0  0
   25.5246    0.5307  -12.6187 C   0  0  2  0  0  0  0  0  0  0  0  0
   25.6412    1.9129  -12.4243 F   0  0  0  0  0  0  0  0  0  0  0  0
  1  2  1  6
  2  3  2  0
  2  4  2  0
  2  5  1  6
  5  6  2  0
  6  7  1  0
  7  8  2  0
  8  9  1  0
  9 10  1  0
 10 11  2  0
 11 12  1  0
 12 13  1  0
 12 14  2  0
 14 15  1  0
 15 16  1  0
 16 17  3  0
 15 18  2  0
  8 19  1  0
 19 20  2  0
 20 21  1  0
 21 22  1  6
 21 23  1  0
 23 24  1  6
 23 25  1  0
 25 26  1  1
 20  5  1  0
 18 10  1  0
 25 19  1  0
M  END
$$$$
