_rank10
     RDKit          3D

 26 28  0  0  0  0  0  0  0  0999 V2000
   28.8365   -2.0463   -8.9407 C   0  0  0  0  0  0  0  0  0  0  0  0
   27.9683   -0.5835   -8.4481 S   0  0  2  0  0  6  0  0  0  0  0  0
   28.8285    0.6250   -8.7214 O   0  0  0  0  0  0  0  0  0  0  0  0
   27.6631   -0.5914   -6.9869 O   0  0  0  0  0  0  0  0  0  0  0  0
   26.4495   -0.4093   -9.3152 C   0  0  0  0  0  0  0  0  0  0  0  0
   25.2477   -0.6658   -8.6832 C   0  0  0  0  0  0  0  0  0  0  0  0
   24.0651   -0.5174   -9.4011 C   0  0  0  0  0  0  0  0  0  0  0  0
   24.0512   -0.1219  -10.7247 C   0  0  0  0  0  0  0  0  0  0  0  0
   22.8386   -0.0115  -11.3263 O   0  0  0  0  0  0  0  0  0  0  0  0
   21.5976   -0.3596  -10.9166 C   0  0  0  0  0  0  0  0  0  0  0  0
   21.2032   -1.6867  -11.1318 C   0  0  0  0  0  0  0  0  0  0  0  0
   19.9795   -2.1562  -10.7631 C   0  0  0  0  0  0  0  0  0  0  0  0
   19.6369   -3.4669  -10.9949 F   0  0  0  0  0  0  0  0  0  0  0  0
   19.0662   -1.3228  -10.1515 C   0  0  0  0  0  0  0  0  0  0  0  0
   19.4152   -0.0103   -9.9217 C   0  0  0  0  0  0  0  0  0  0  0  0
   18.4481    0.8338   -9.2851 C   0  0  0  0  0  0  0  0  0  0  0  0
   17.6811    1.5233   -8.7602 N   0  0  0  0  0  0  0  0  0  0  0  0
   20.6611    0.4429  -10.3041 C   0  0  0  0  0  0  0  0  0  0  0  0
   25.2865    0.1205  -11.3030 C   0  0  0  0  0  0  0  0  0  0  0  0
   26.4835   -0.0134  -10.6325 C   0  0  0  0  0  0  0  0  0  0  0  0
   27.6183    0.3190  -11.5752 C   0  0  2  0  0  0  0  0  0  0  0  0
   27.7918    1.6805  -11.6102 O   0  0  0  0  0  0  0  0  0  0  0  0
   26.9498   -0.1428  -12.8855 C   0  0  2  0  0  0  0  0  0  0  0  0
   27.5996    0.3138  -13.9822 F   0  0  0  0  0  0  0  0  0  0  0  0
   25.5929    0.5480  -12.6739 C   0  0  2  0  0  0  0  0  0  0  0  0
   25.8528    1.9238  -12.6318 F   0  0  0  0  0  0  0  0  0  0  0  0
  1  2  1  6
  2  3  2  0
  2  4  2  0
  2  5  1  6
  5  6  2  0
  6  7  1  0
  7  8  2  0
  8  9  1  0
  9 10  1  0
 10 11  2  0
 11 12  1  0
 12 13  1  0
 12 14  2  0
 14 15  1  0
 15 16  1  0
 16 17  3  0
 15 18  2  0
  8 19  1  0
 19 20  2  0
 20 21  1  0
 21 22  1  6
 21 23  1  0
 23 24  1  6
 23 25  1  0
 25 26  1  1
 20  5  1  0
 18 10  1  0
 25 19  1  0
M  END
$$$$
