_rank6
     RDKit          3D

 26 28  0  0  0  0  0  0  0  0999 V2000
   28.7521    1.2833   -8.5861 C   0  0  0  0  0  0  0  0  0  0  0  0
   27.9243   -0.2822   -8.5726 S   0  0  2  0  0  6  0  0  0  0  0  0
   27.6255   -0.6780   -7.1481 O   0  0  0  0  0  0  0  0  0  0  0  0
   28.7730   -1.3578   -9.1649 O   0  0  0  0  0  0  0  0  0  0  0  0
   26.4177   -0.2254   -9.4759 C   0  0  0  0  0  0  0  0  0  0  0  0
   25.2151   -0.4978   -8.8521 C   0  0  0  0  0  0  0  0  0  0  0  0
   24.0424   -0.4432   -9.5989 C   0  0  0  0  0  0  0  0  0  0  0  0
   24.0390   -0.1258  -10.9433 C   0  0  0  0  0  0  0  0  0  0  0  0
   22.8356   -0.1038  -11.5723 O   0  0  0  0  0  0  0  0  0  0  0  0
   21.5789   -0.3047  -11.1146 C   0  0  0  0  0  0  0  0  0  0  0  0
   21.0301   -1.5811  -11.2954 C   0  0  0  0  0  0  0  0  0  0  0  0
   19.7756   -1.9051  -10.8772 C   0  0  0  0  0  0  0  0  0  0  0  0
   19.2795   -3.1712  -11.0767 F   0  0  0  0  0  0  0  0  0  0  0  0
   18.9845   -0.9668  -10.2473 C   0  0  0  0  0  0  0  0  0  0  0  0
   19.4872    0.3004  -10.0501 C   0  0  0  0  0  0  0  0  0  0  0  0
   18.6449    1.2556   -9.3934 C   0  0  0  0  0  0  0  0  0  0  0  0
   17.9514    2.0134   -8.8604 N   0  0  0  0  0  0  0  0  0  0  0  0
   20.7615    0.6055  -10.4824 C   0  0  0  0  0  0  0  0  0  0  0  0
   25.2745    0.1371  -11.5122 C   0  0  0  0  0  0  0  0  0  0  0  0
   26.4620    0.0950  -10.8133 C   0  0  0  0  0  0  0  0  0  0  0  0
   27.6008    0.4222  -11.7530 C   0  0  2  0  0  0  0  0  0  0  0  0
   27.7163    1.7857  -11.8645 O   0  0  0  0  0  0  0  0  0  0  0  0
   26.9801   -0.1435  -13.0460 C   0  0  2  0  0  0  0  0  0  0  0  0
   27.6323    0.2773  -14.1556 F   0  0  0  0  0  0  0  0  0  0  0  0
   25.5906    0.4980  -12.9000 C   0  0  2  0  0  0  0  0  0  0  0  0
   25.7903    1.8840  -12.9337 F   0  0  0  0  0  0  0  0  0  0  0  0
  1  2  1  6
  2  3  2  0
  2  4  2  0
  2  5  1  6
  5  6  2  0
  6  7  1  0
  7  8  2  0
  8  9  1  0
  9 10  1  0
 10 11  2  0
 11 12  1  0
 12 13  1  0
 12 14  2  0
 14 15  1  0
 15 16  1  0
 16 17  3  0
 15 18  2  0
  8 19  1  0
 19 20  2  0
 20 21  1  0
 21 22  1  6
 21 23  1  0
 23 24  1  6
 23 25  1  0
 25 26  1  1
 20  5  1  0
 18 10  1  0
 25 19  1  0
M  END
$$$$
