_rank15
     RDKit          3D

 26 28  0  0  0  0  0  0  0  0999 V2000
   28.6577    0.2349   -8.3639 C   0  0  0  0  0  0  0  0  0  0  0  0
   27.8057   -1.2330   -8.8694 S   0  0  2  0  0  6  0  0  0  0  0  0
   27.5348   -2.0953   -7.6619 O   0  0  0  0  0  0  0  0  0  0  0  0
   28.6228   -2.0428   -9.8205 O   0  0  0  0  0  0  0  0  0  0  0  0
   26.2790   -0.8572   -9.6550 C   0  0  0  0  0  0  0  0  0  0  0  0
   25.0875   -1.3204   -9.1303 C   0  0  0  0  0  0  0  0  0  0  0  0
   23.8983   -1.0031   -9.7792 C   0  0  0  0  0  0  0  0  0  0  0  0
   23.8678   -0.2403  -10.9305 C   0  0  0  0  0  0  0  0  0  0  0  0
   22.6502    0.0059  -11.4792 O   0  0  0  0  0  0  0  0  0  0  0  0
   21.4037   -0.3548  -11.0983 C   0  0  0  0  0  0  0  0  0  0  0  0
   20.3870    0.5957  -11.2591 C   0  0  0  0  0  0  0  0  0  0  0  0
   19.0932    0.3502  -10.9132 C   0  0  0  0  0  0  0  0  0  0  0  0
   18.1295    1.3141  -11.0894 F   0  0  0  0  0  0  0  0  0  0  0  0
   18.7313   -0.8699  -10.3809 C   0  0  0  0  0  0  0  0  0  0  0  0
   19.7015   -1.8321  -10.2067 C   0  0  0  0  0  0  0  0  0  0  0  0
   19.2988   -3.0903   -9.6520 C   0  0  0  0  0  0  0  0  0  0  0  0
   18.9918   -4.1097   -9.1982 N   0  0  0  0  0  0  0  0  0  0  0  0
   21.0060   -1.5604  -10.5647 C   0  0  0  0  0  0  0  0  0  0  0  0
   25.0934    0.1948  -11.4078 C   0  0  0  0  0  0  0  0  0  0  0  0
   26.2965   -0.0944  -10.8000 C   0  0  0  0  0  0  0  0  0  0  0  0
   27.4175    0.5298  -11.6003 C   0  0  2  0  0  0  0  0  0  0  0  0
   27.5521    1.8470  -11.2370 O   0  0  0  0  0  0  0  0  0  0  0  0
   26.7571    0.4504  -12.9912 C   0  0  2  0  0  0  0  0  0  0  0  0
   27.3893    1.2245  -13.9048 F   0  0  0  0  0  0  0  0  0  0  0  0
   25.3820    1.0111  -12.5937 C   0  0  2  0  0  0  0  0  0  0  0  0
   25.6029    2.3219  -12.1521 F   0  0  0  0  0  0  0  0  0  0  0  0
  1  2  1  6
  2  3  2  0
  2  4  2  0
  2  5  1  6
  5  6  2  0
  6  7  1  0
  7  8  2  0
  8  9  1  0
  9 10  1  0
 10 11  2  0
 11 12  1  0
 12 13  1  0
 12 14  2  0
 14 15  1  0
 15 16  1  0
 16 17  3  0
 15 18  2  0
  8 19  1  0
 19 20  2  0
 20 21  1  0
 21 22  1  1
 21 23  1  0
 23 24  1  6
 23 25  1  0
 25 26  1  1
 20  5  1  0
 18 10  1  0
 25 19  1  0
M  END
$$$$
