_rank8
     RDKit          3D

 26 28  0  0  0  0  0  0  0  0999 V2000
   28.6435    0.9063   -8.2021 C   0  0  0  0  0  0  0  0  0  0  0  0
   27.8378   -0.6522   -8.4428 S   0  0  2  0  0  6  0  0  0  0  0  0
   27.5744   -1.2917   -7.1024 O   0  0  0  0  0  0  0  0  0  0  0  0
   28.6886   -1.5955   -9.2267 O   0  0  0  0  0  0  0  0  0  0  0  0
   26.3119   -0.4671   -9.2953 C   0  0  0  0  0  0  0  0  0  0  0  0
   25.1176   -0.7694   -8.6694 C   0  0  0  0  0  0  0  0  0  0  0  0
   23.9292   -0.6107   -9.3753 C   0  0  0  0  0  0  0  0  0  0  0  0
   23.9022   -0.1609  -10.6811 C   0  0  0  0  0  0  0  0  0  0  0  0
   22.6850   -0.0456  -11.2723 O   0  0  0  0  0  0  0  0  0  0  0  0
   21.4499   -0.4171  -10.8654 C   0  0  0  0  0  0  0  0  0  0  0  0
   20.6718    0.5529  -10.2199 C   0  0  0  0  0  0  0  0  0  0  0  0
   19.4136    0.2995   -9.7656 C   0  0  0  0  0  0  0  0  0  0  0  0
   18.6878    1.2833   -9.1378 F   0  0  0  0  0  0  0  0  0  0  0  0
   18.8495   -0.9486   -9.9291 C   0  0  0  0  0  0  0  0  0  0  0  0
   19.5817   -1.9306  -10.5591 C   0  0  0  0  0  0  0  0  0  0  0  0
   18.9723   -3.2179  -10.7160 C   0  0  0  0  0  0  0  0  0  0  0  0
   18.4784   -4.2590  -10.8235 N   0  0  0  0  0  0  0  0  0  0  0  0
   20.8548   -1.6504  -11.0112 C   0  0  0  0  0  0  0  0  0  0  0  0
   25.1305    0.1257  -11.2543 C   0  0  0  0  0  0  0  0  0  0  0  0
   26.3329   -0.0163  -10.5952 C   0  0  0  0  0  0  0  0  0  0  0  0
   27.4573    0.3736  -11.5281 C   0  0  2  0  0  0  0  0  0  0  0  0
   27.6085    1.7381  -11.5072 O   0  0  0  0  0  0  0  0  0  0  0  0
   26.7898   -0.0443  -12.8536 C   0  0  2  0  0  0  0  0  0  0  0  0
   27.4266    0.4681  -13.9332 F   0  0  0  0  0  0  0  0  0  0  0  0
   25.4229    0.6148  -12.6075 C   0  0  2  0  0  0  0  0  0  0  0  0
   25.6607    1.9917  -12.5092 F   0  0  0  0  0  0  0  0  0  0  0  0
  1  2  1  6
  2  3  2  0
  2  4  2  0
  2  5  1  6
  5  6  2  0
  6  7  1  0
  7  8  2  0
  8  9  1  0
  9 10  1  0
 10 11  2  0
 11 12  1  0
 12 13  1  0
 12 14  2  0
 14 15  1  0
 15 16  1  0
 16 17  3  0
 15 18  2  0
  8 19  1  0
 19 20  2  0
 20 21  1  0
 21 22  1  6
 21 23  1  0
 23 24  1  6
 23 25  1  0
 25 26  1  1
 20  5  1  0
 18 10  1  0
 25 19  1  0
M  END
$$$$
