_rank12
     RDKit          3D

 19 21  0  0  0  0  0  0  0  0999 V2000
   28.7223   -0.4113   -8.8169 C   0  0  0  0  0  0  0  0  0  0  0  0
   27.0901    0.1800   -8.4356 S   0  0  1  0  0  6  0  0  0  0  0  0
   26.4467   -0.7791   -7.4757 O   0  0  0  0  0  0  0  0  0  0  0  0
   27.2366    1.5342   -7.7861 O   0  0  0  0  0  0  0  0  0  0  0  0
   26.1177    0.3570   -9.9149 C   0  0  1  0  0  0  0  0  0  0  0  0
   26.8193   -0.4177  -11.0047 C   0  0  0  0  0  0  0  0  0  0  0  0
   25.7198   -1.1524  -11.7812 C   0  0  0  0  0  0  0  0  0  0  0  0
   24.6484   -0.1142  -12.0530 C   0  0  0  0  0  0  0  0  0  0  0  0
   23.8030   -0.0841  -10.7818 C   0  0  1  0  0  0  0  0  0  0  0  0
   24.7451   -0.1874   -9.6139 C   0  0  0  0  0  0  0  0  0  0  0  0
   22.9227    1.0285  -10.7267 N   0  0  0  0  0  0  0  0  0  0  0  0
   21.6281    0.5187  -10.4252 C   0  0  0  0  0  0  0  0  0  0  0  0
   20.4244    1.1709  -10.1023 C   0  0  0  0  0  0  0  0  0  0  0  0
   19.3125    0.3996   -9.8559 C   0  0  0  0  0  0  0  0  0  0  0  0
   18.1409    0.9727   -9.5440 F   0  0  0  0  0  0  0  0  0  0  0  0
   19.3895   -0.9802   -9.9270 C   0  0  0  0  0  0  0  0  0  0  0  0
   20.5685   -1.6136  -10.2431 C   0  0  0  0  0  0  0  0  0  0  0  0
   21.7152   -0.8493  -10.4984 C   0  0  0  0  0  0  0  0  0  0  0  0
   22.9966   -1.2464  -10.8309 O   0  0  0  0  0  0  0  0  0  0  0  0
  2  1  1  6
  2  3  2  0
  2  4  2  0
  5  2  1  1
  6  5  1  6
  7  6  1  1
  8  7  1  1
  8  9  1  0
 10  9  1  6
  9 11  1  1
 11 12  1  0
 12 13  2  0
 13 14  1  0
 14 15  1  0
 14 16  2  0
 16 17  1  0
 17 18  2  0
 18 19  1  0
 10  5  1  0
 18 12  1  0
  9 19  1  0
M  END
$$$$
