_rank19
     RDKit          3D

 19 21  0  0  0  0  0  0  0  0999 V2000
   19.0325   -1.2862  -10.9388 C   0  0  0  0  0  0  0  0  0  0  0  0
   20.4198   -1.0158   -9.8612 S   0  0  1  0  0  6  0  0  0  0  0  0
   20.4225    0.4252   -9.4385 O   0  0  0  0  0  0  0  0  0  0  0  0
   20.2390   -1.9036   -8.6545 O   0  0  0  0  0  0  0  0  0  0  0  0
   21.9444   -1.4508  -10.6685 C   0  0  1  0  0  0  0  0  0  0  0  0
   21.7834   -1.1201  -12.1330 C   0  0  0  0  0  0  0  0  0  0  0  0
   23.1038   -0.4761  -12.5725 C   0  0  0  0  0  0  0  0  0  0  0  0
   24.1973   -1.3798  -12.0366 C   0  0  0  0  0  0  0  0  0  0  0  0
   24.3998   -0.9321  -10.5908 C   0  0  1  0  0  0  0  0  0  0  0  0
   23.0398   -0.6489  -10.0142 C   0  0  0  0  0  0  0  0  0  0  0  0
   25.1790   -1.8440   -9.8312 N   0  0  0  0  0  0  0  0  0  0  0  0
   26.2044   -1.0862   -9.1980 C   0  0  0  0  0  0  0  0  0  0  0  0
   27.1517   -1.4392   -8.2199 C   0  0  0  0  0  0  0  0  0  0  0  0
   28.0343   -0.4753   -7.7912 C   0  0  0  0  0  0  0  0  0  0  0  0
   28.9566   -0.7610   -6.8606 F   0  0  0  0  0  0  0  0  0  0  0  0
   27.9810    0.8039   -8.3163 C   0  0  0  0  0  0  0  0  0  0  0  0
   27.0531    1.1447   -9.2724 C   0  0  0  0  0  0  0  0  0  0  0  0
   26.1432    0.1797   -9.7252 C   0  0  0  0  0  0  0  0  0  0  0  0
   25.1332    0.2765  -10.6637 O   0  0  0  0  0  0  0  0  0  0  0  0
  2  1  1  6
  2  3  2  0
  2  4  2  0
  5  2  1  1
  6  5  1  6
  7  6  1  1
  8  7  1  1
  8  9  1  0
 10  9  1  6
  9 11  1  1
 11 12  1  0
 12 13  2  0
 13 14  1  0
 14 15  1  0
 14 16  2  0
 16 17  1  0
 17 18  2  0
 18 19  1  0
 10  5  1  0
 18 12  1  0
  9 19  1  0
M  END
$$$$
