_rank3
     RDKit          3D

 19 21  0  0  0  0  0  0  0  0999 V2000
   27.1435   -1.3644   -7.7745 C   0  0  0  0  0  0  0  0  0  0  0  0
   27.3065    0.2514   -8.4967 S   0  0  1  0  0  6  0  0  0  0  0  0
   26.9483    1.2766   -7.4596 O   0  0  0  0  0  0  0  0  0  0  0  0
   28.7477    0.4223   -8.9099 O   0  0  0  0  0  0  0  0  0  0  0  0
   26.2755    0.4090   -9.9381 C   0  0  1  0  0  0  0  0  0  0  0  0
   26.9650   -0.3272  -11.0618 C   0  0  0  0  0  0  0  0  0  0  0  0
   25.8656   -1.0930  -11.8077 C   0  0  0  0  0  0  0  0  0  0  0  0
   24.7481   -0.0920  -12.0281 C   0  0  0  0  0  0  0  0  0  0  0  0
   23.9485   -0.1072  -10.7273 C   0  0  1  0  0  0  0  0  0  0  0  0
   24.9353   -0.1888   -9.5951 C   0  0  0  0  0  0  0  0  0  0  0  0
   23.0310    0.9715  -10.6270 N   0  0  0  0  0  0  0  0  0  0  0  0
   21.7675    0.4112  -10.2858 C   0  0  0  0  0  0  0  0  0  0  0  0
   20.5533    1.0150   -9.9121 C   0  0  0  0  0  0  0  0  0  0  0  0
   19.4798    0.2007   -9.6358 C   0  0  0  0  0  0  0  0  0  0  0  0
   18.3002    0.7268   -9.2751 F   0  0  0  0  0  0  0  0  0  0  0  0
   19.6043   -1.1745   -9.7268 C   0  0  0  0  0  0  0  0  0  0  0  0
   20.7934   -1.7606  -10.0926 C   0  0  0  0  0  0  0  0  0  0  0  0
   21.9016   -0.9518  -10.3791 C   0  0  0  0  0  0  0  0  0  0  0  0
   23.1837   -1.2978  -10.7621 O   0  0  0  0  0  0  0  0  0  0  0  0
  2  1  1  1
  2  3  2  0
  2  4  2  0
  5  2  1  1
  6  5  1  6
  7  6  1  1
  8  7  1  1
  8  9  1  0
 10  9  1  6
  9 11  1  1
 11 12  1  0
 12 13  2  0
 13 14  1  0
 14 15  1  0
 14 16  2  0
 16 17  1  0
 17 18  2  0
 18 19  1  0
 10  5  1  0
 18 12  1  0
  9 19  1  0
M  END
$$$$
