_rank10
     RDKit          3D

 19 21  0  0  0  0  0  0  0  0999 V2000
   27.6431   -1.4138   -7.9832 C   0  0  0  0  0  0  0  0  0  0  0  0
   27.3556    0.2645   -8.4925 S   0  0  1  0  0  6  0  0  0  0  0  0
   26.7397    1.0130   -7.3456 O   0  0  0  0  0  0  0  0  0  0  0  0
   28.6931    0.8703   -8.8406 O   0  0  0  0  0  0  0  0  0  0  0  0
   26.3102    0.3207   -9.9310 C   0  0  1  0  0  0  0  0  0  0  0  0
   26.9450   -0.5629  -10.9780 C   0  0  0  0  0  0  0  0  0  0  0  0
   25.7980   -1.3474  -11.6265 C   0  0  0  0  0  0  0  0  0  0  0  0
   24.7266   -0.3209  -11.9393 C   0  0  0  0  0  0  0  0  0  0  0  0
   23.9485   -0.1593  -10.6354 C   0  0  1  0  0  0  0  0  0  0  0  0
   24.9484   -0.1703   -9.5119 C   0  0  0  0  0  0  0  0  0  0  0  0
   23.0858    0.9682  -10.6397 N   0  0  0  0  0  0  0  0  0  0  0  0
   21.8025    0.5103  -10.2273 C   0  0  0  0  0  0  0  0  0  0  0  0
   20.6250    1.2097   -9.9062 C   0  0  0  0  0  0  0  0  0  0  0  0
   19.5181    0.4833   -9.5334 C   0  0  0  0  0  0  0  0  0  0  0  0
   18.3713    1.1024   -9.2175 F   0  0  0  0  0  0  0  0  0  0  0  0
   19.5746   -0.8983   -9.4797 C   0  0  0  0  0  0  0  0  0  0  0  0
   20.7279   -1.5779   -9.7946 C   0  0  0  0  0  0  0  0  0  0  0  0
   21.8690   -0.8598  -10.1773 C   0  0  0  0  0  0  0  0  0  0  0  0
   23.1266   -1.3075  -10.5355 O   0  0  0  0  0  0  0  0  0  0  0  0
  2  1  1  1
  2  3  2  0
  2  4  2  0
  5  2  1  1
  6  5  1  6
  7  6  1  1
  8  7  1  1
  8  9  1  0
 10  9  1  6
  9 11  1  6
 11 12  1  0
 12 13  2  0
 13 14  1  0
 14 15  1  0
 14 16  2  0
 16 17  1  0
 17 18  2  0
 18 19  1  0
 10  5  1  0
 18 12  1  0
  9 19  1  0
M  END
$$$$
