_rank20
     RDKit          3D

 19 21  0  0  0  0  0  0  0  0999 V2000
   18.8541   -1.6704  -12.1827 C   0  0  0  0  0  0  0  0  0  0  0  0
   20.5918   -1.9591  -11.9461 S   0  0  1  0  0  6  0  0  0  0  0  0
   20.7811   -3.3708  -11.4704 O   0  0  0  0  0  0  0  0  0  0  0  0
   21.2703   -1.7729  -13.2810 O   0  0  0  0  0  0  0  0  0  0  0  0
   21.2766   -0.7944  -10.7886 C   0  0  1  0  0  0  0  0  0  0  0  0
   20.4079   -0.8297   -9.5541 C   0  0  0  0  0  0  0  0  0  0  0  0
   21.3657   -0.7897   -8.3572 C   0  0  0  0  0  0  0  0  0  0  0  0
   22.3460    0.3280   -8.6558 C   0  0  0  0  0  0  0  0  0  0  0  0
   23.4063   -0.3113   -9.5495 C   0  0  1  0  0  0  0  0  0  0  0  0
   22.6933   -1.2251  -10.5082 C   0  0  0  0  0  0  0  0  0  0  0  0
   24.2560    0.6410  -10.1713 N   0  0  0  0  0  0  0  0  0  0  0  0
   25.5952    0.2270   -9.9227 C   0  0  0  0  0  0  0  0  0  0  0  0
   26.8220    0.6981  -10.4243 C   0  0  0  0  0  0  0  0  0  0  0  0
   27.9777    0.0890   -9.9939 C   0  0  0  0  0  0  0  0  0  0  0  0
   29.1728    0.5006  -10.4419 F   0  0  0  0  0  0  0  0  0  0  0  0
   27.9211   -0.9584   -9.0912 C   0  0  0  0  0  0  0  0  0  0  0  0
   26.7194   -1.4157   -8.6035 C   0  0  0  0  0  0  0  0  0  0  0  0
   25.5280   -0.8111   -9.0272 C   0  0  0  0  0  0  0  0  0  0  0  0
   24.2173   -1.0868   -8.6866 O   0  0  0  0  0  0  0  0  0  0  0  0
  2  1  1  6
  2  3  2  0
  2  4  2  0
  5  2  1  6
  6  5  1  6
  7  6  1  1
  8  7  1  1
  8  9  1  0
 10  9  1  6
  9 11  1  6
 11 12  1  0
 12 13  2  0
 13 14  1  0
 14 15  1  0
 14 16  2  0
 16 17  1  0
 17 18  2  0
 18 19  1  0
 10  5  1  0
 18 12  1  0
  9 19  1  0
M  END
$$$$
