_rank15
     RDKit          3D

 19 21  0  0  0  0  0  0  0  0999 V2000
   28.4463    1.0375   -8.3573 C   0  0  0  0  0  0  0  0  0  0  0  0
   26.9880    0.0215   -8.3634 S   0  0  1  0  0  6  0  0  0  0  0  0
   27.4073   -1.4166   -8.2588 O   0  0  0  0  0  0  0  0  0  0  0  0
   26.1618    0.4033   -7.1599 O   0  0  0  0  0  0  0  0  0  0  0  0
   26.0242    0.3039   -9.8320 C   0  0  1  0  0  0  0  0  0  0  0  0
   26.7288   -0.3967  -10.9690 C   0  0  0  0  0  0  0  0  0  0  0  0
   25.6308   -1.0716  -11.8000 C   0  0  0  0  0  0  0  0  0  0  0  0
   24.5647   -0.0129  -12.0050 C   0  0  0  0  0  0  0  0  0  0  0  0
   23.7126   -0.0670  -10.7391 C   0  0  1  0  0  0  0  0  0  0  0  0
   24.6480   -0.2543   -9.5762 C   0  0  0  0  0  0  0  0  0  0  0  0
   22.8361    1.0427  -10.6120 N   0  0  0  0  0  0  0  0  0  0  0  0
   21.5381    0.5186  -10.3529 C   0  0  0  0  0  0  0  0  0  0  0  0
   20.3350    1.1518   -9.9920 C   0  0  0  0  0  0  0  0  0  0  0  0
   19.2190    0.3699   -9.8050 C   0  0  0  0  0  0  0  0  0  0  0  0
   18.0479    0.9249   -9.4603 F   0  0  0  0  0  0  0  0  0  0  0  0
   19.2913   -1.0020   -9.9707 C   0  0  0  0  0  0  0  0  0  0  0  0
   20.4697   -1.6169  -10.3236 C   0  0  0  0  0  0  0  0  0  0  0  0
   21.6205   -0.8414  -10.5198 C   0  0  0  0  0  0  0  0  0  0  0  0
   22.9022   -1.2199  -10.8723 O   0  0  0  0  0  0  0  0  0  0  0  0
  2  1  1  6
  2  3  2  0
  2  4  2  0
  5  2  1  1
  6  5  1  6
  7  6  1  1
  8  7  1  1
  8  9  1  0
 10  9  1  6
  9 11  1  1
 11 12  1  0
 12 13  2  0
 13 14  1  0
 14 15  1  0
 14 16  2  0
 16 17  1  0
 17 18  2  0
 18 19  1  0
 10  5  1  0
 18 12  1  0
  9 19  1  0
M  END
$$$$
