_rank18
     RDKit          3D

 19 21  0  0  0  0  0  0  0  0999 V2000
   27.6343    1.5044   -7.5413 C   0  0  0  0  0  0  0  0  0  0  0  0
   26.9800   -0.0074   -8.2087 S   0  0  1  0  0  6  0  0  0  0  0  0
   28.1226   -0.9422   -8.4837 O   0  0  0  0  0  0  0  0  0  0  0  0
   26.0664   -0.6068   -7.1681 O   0  0  0  0  0  0  0  0  0  0  0  0
   26.0378    0.3063   -9.6850 C   0  0  1  0  0  0  0  0  0  0  0  0
   26.7705   -0.3518  -10.8295 C   0  0  0  0  0  0  0  0  0  0  0  0
   25.6956   -1.0155  -11.6988 C   0  0  0  0  0  0  0  0  0  0  0  0
   24.6196    0.0356  -11.8913 C   0  0  0  0  0  0  0  0  0  0  0  0
   23.7468   -0.0662  -10.6425 C   0  0  1  0  0  0  0  0  0  0  0  0
   24.6646   -0.2762   -9.4695 C   0  0  0  0  0  0  0  0  0  0  0  0
   22.8541    1.0283  -10.4982 N   0  0  0  0  0  0  0  0  0  0  0  0
   21.5587    0.4808  -10.2772 C   0  0  0  0  0  0  0  0  0  0  0  0
   20.3417    1.0883   -9.9189 C   0  0  0  0  0  0  0  0  0  0  0  0
   19.2327    0.2875   -9.7743 C   0  0  0  0  0  0  0  0  0  0  0  0
   18.0489    0.8176   -9.4339 F   0  0  0  0  0  0  0  0  0  0  0  0
   19.3254   -1.0780   -9.9787 C   0  0  0  0  0  0  0  0  0  0  0  0
   20.5175   -1.6676  -10.3289 C   0  0  0  0  0  0  0  0  0  0  0  0
   21.6614   -0.8726  -10.4823 C   0  0  0  0  0  0  0  0  0  0  0  0
   22.9536   -1.2247  -10.8234 O   0  0  0  0  0  0  0  0  0  0  0  0
  2  1  1  1
  2  3  2  0
  2  4  2  0
  5  2  1  1
  6  5  1  6
  7  6  1  1
  8  7  1  1
  8  9  1  0
 10  9  1  6
  9 11  1  1
 11 12  1  0
 12 13  2  0
 13 14  1  0
 14 15  1  0
 14 16  2  0
 16 17  1  0
 17 18  2  0
 18 19  1  0
 10  5  1  0
 18 12  1  0
  9 19  1  0
M  END
$$$$
