_rank1
     RDKit          3D

 19 21  0  0  0  0  0  0  0  0999 V2000
   26.7243   -1.2431   -7.8329 C   0  0  0  0  0  0  0  0  0  0  0  0
   27.3344    0.1912   -8.6869 S   0  0  1  0  0  6  0  0  0  0  0  0
   27.3651    1.3433   -7.7242 O   0  0  0  0  0  0  0  0  0  0  0  0
   28.7337   -0.1203   -9.1582 O   0  0  0  0  0  0  0  0  0  0  0  0
   26.3236    0.5644  -10.1026 C   0  0  1  0  0  0  0  0  0  0  0  0
   27.0679    0.0769  -11.3226 C   0  0  0  0  0  0  0  0  0  0  0  0
   26.0204   -0.5871  -12.2244 C   0  0  0  0  0  0  0  0  0  0  0  0
   24.8604    0.3875  -12.2889 C   0  0  0  0  0  0  0  0  0  0  0  0
   24.0388    0.0999  -11.0344 C   0  0  1  0  0  0  0  0  0  0  0  0
   25.0075   -0.1441   -9.9099 C   0  0  0  0  0  0  0  0  0  0  0  0
   23.0690    1.1009  -10.7642 N   0  0  0  0  0  0  0  0  0  0  0  0
   21.8278    0.4329  -10.5645 C   0  0  0  0  0  0  0  0  0  0  0  0
   20.5794    0.9045  -10.1198 C   0  0  0  0  0  0  0  0  0  0  0  0
   19.5413    0.0072  -10.0249 C   0  0  0  0  0  0  0  0  0  0  0  0
   18.3314    0.4064   -9.6063 F   0  0  0  0  0  0  0  0  0  0  0  0
   19.7331   -1.3214  -10.3610 C   0  0  0  0  0  0  0  0  0  0  0  0
   20.9554   -1.7781  -10.7953 C   0  0  0  0  0  0  0  0  0  0  0  0
   22.0286   -0.8829  -10.9003 C   0  0  0  0  0  0  0  0  0  0  0  0
   23.3326   -1.0966  -11.3054 O   0  0  0  0  0  0  0  0  0  0  0  0
  2  1  1  1
  2  3  2  0
  2  4  2  0
  5  2  1  1
  6  5  1  6
  7  6  1  1
  8  7  1  1
  8  9  1  0
 10  9  1  6
  9 11  1  1
 11 12  1  0
 12 13  2  0
 13 14  1  0
 14 15  1  0
 14 16  2  0
 16 17  1  0
 17 18  2  0
 18 19  1  0
 10  5  1  0
 18 12  1  0
  9 19  1  0
M  END
$$$$
