_rank4
     RDKit          3D

 19 21  0  0  0  0  0  0  0  0999 V2000
   26.3917   -0.2724   -7.2465 C   0  0  0  0  0  0  0  0  0  0  0  0
   27.3518    0.3987   -8.5832 S   0  0  1  0  0  6  0  0  0  0  0  0
   27.9725    1.6873   -8.1258 O   0  0  0  0  0  0  0  0  0  0  0  0
   28.4322   -0.6012   -8.9147 O   0  0  0  0  0  0  0  0  0  0  0  0
   26.3419    0.6494  -10.0263 C   0  0  1  0  0  0  0  0  0  0  0  0
   27.0539   -0.0027  -11.1873 C   0  0  0  0  0  0  0  0  0  0  0  0
   25.9718   -0.7220  -12.0017 C   0  0  0  0  0  0  0  0  0  0  0  0
   24.8504    0.2848  -12.1699 C   0  0  0  0  0  0  0  0  0  0  0  0
   24.0311    0.1745  -10.8860 C   0  0  1  0  0  0  0  0  0  0  0  0
   25.0011    0.0208   -9.7467 C   0  0  0  0  0  0  0  0  0  0  0  0
   23.1042    1.2378  -10.7257 N   0  0  0  0  0  0  0  0  0  0  0  0
   21.8398    0.6472  -10.4442 C   0  0  0  0  0  0  0  0  0  0  0  0
   20.6156    1.2159  -10.0488 C   0  0  0  0  0  0  0  0  0  0  0  0
   19.5441    0.3776   -9.8465 C   0  0  0  0  0  0  0  0  0  0  0  0
   18.3552    0.8700   -9.4690 F   0  0  0  0  0  0  0  0  0  0  0  0
   19.6801   -0.9871  -10.0306 C   0  0  0  0  0  0  0  0  0  0  0  0
   20.8790   -1.5389  -10.4173 C   0  0  0  0  0  0  0  0  0  0  0  0
   21.9854   -0.7052  -10.6295 C   0  0  0  0  0  0  0  0  0  0  0  0
   23.2757   -1.0157  -11.0152 O   0  0  0  0  0  0  0  0  0  0  0  0
  2  1  1  1
  2  3  2  0
  2  4  2  0
  5  2  1  1
  6  5  1  6
  7  6  1  1
  8  7  1  1
  8  9  1  0
 10  9  1  6
  9 11  1  1
 11 12  1  0
 12 13  2  0
 13 14  1  0
 14 15  1  0
 14 16  2  0
 16 17  1  0
 17 18  2  0
 18 19  1  0
 10  5  1  0
 18 12  1  0
  9 19  1  0
M  END
$$$$
