_rank14
     RDKit          3D

 19 21  0  0  0  0  0  0  0  0999 V2000
   26.1985    0.3737   -7.0729 C   0  0  0  0  0  0  0  0  0  0  0  0
   27.1736    0.0990   -8.5332 S   0  0  1  0  0  6  0  0  0  0  0  0
   28.3055    1.0859   -8.5445 O   0  0  0  0  0  0  0  0  0  0  0  0
   27.7193   -1.3059   -8.4589 O   0  0  0  0  0  0  0  0  0  0  0  0
   26.1767    0.2488   -9.9992 C   0  0  1  0  0  0  0  0  0  0  0  0
   26.8647   -0.5387  -11.0884 C   0  0  0  0  0  0  0  0  0  0  0  0
   25.7568   -1.2905  -11.8360 C   0  0  0  0  0  0  0  0  0  0  0  0
   24.6758   -0.2619  -12.1060 C   0  0  0  0  0  0  0  0  0  0  0  0
   23.8507   -0.2168  -10.8220 C   0  0  1  0  0  0  0  0  0  0  0  0
   24.8119   -0.2977   -9.6680 C   0  0  0  0  0  0  0  0  0  0  0  0
   22.9656    0.8921  -10.7695 N   0  0  0  0  0  0  0  0  0  0  0  0
   21.6787    0.3805  -10.4395 C   0  0  0  0  0  0  0  0  0  0  0  0
   20.4769    1.0314  -10.1071 C   0  0  0  0  0  0  0  0  0  0  0  0
   19.3732    0.2585   -9.8312 C   0  0  0  0  0  0  0  0  0  0  0  0
   18.2037    0.8304   -9.5091 F   0  0  0  0  0  0  0  0  0  0  0  0
   19.4562   -1.1219   -9.8829 C   0  0  0  0  0  0  0  0  0  0  0  0
   20.6333   -1.7541  -10.2083 C   0  0  0  0  0  0  0  0  0  0  0  0
   21.7717   -0.9880  -10.4935 C   0  0  0  0  0  0  0  0  0  0  0  0
   23.0497   -1.3837  -10.8406 O   0  0  0  0  0  0  0  0  0  0  0  0
  2  1  1  1
  2  3  2  0
  2  4  2  0
  5  2  1  1
  6  5  1  6
  7  6  1  1
  8  7  1  1
  8  9  1  0
 10  9  1  6
  9 11  1  1
 11 12  1  0
 12 13  2  0
 13 14  1  0
 14 15  1  0
 14 16  2  0
 16 17  1  0
 17 18  2  0
 18 19  1  0
 10  5  1  0
 18 12  1  0
  9 19  1  0
M  END
$$$$
