_rank8
     RDKit          3D

 19 21  0  0  0  0  0  0  0  0999 V2000
   26.4299    0.5712   -6.9992 C   0  0  0  0  0  0  0  0  0  0  0  0
   27.2423    0.0555   -8.4935 S   0  0  1  0  0  6  0  0  0  0  0  0
   28.6112    0.6718   -8.5302 O   0  0  0  0  0  0  0  0  0  0  0  0
   27.3583   -1.4485   -8.4530 O   0  0  0  0  0  0  0  0  0  0  0  0
   26.2916    0.5177   -9.9245 C   0  0  1  0  0  0  0  0  0  0  0  0
   27.1010    0.1341  -11.1402 C   0  0  0  0  0  0  0  0  0  0  0  0
   26.1091   -0.4767  -12.1376 C   0  0  0  0  0  0  0  0  0  0  0  0
   24.9353    0.4821  -12.1854 C   0  0  0  0  0  0  0  0  0  0  0  0
   24.0618    0.0891  -10.9961 C   0  0  1  0  0  0  0  0  0  0  0  0
   24.9816   -0.2232   -9.8477 C   0  0  0  0  0  0  0  0  0  0  0  0
   23.0618    1.0523  -10.6995 N   0  0  0  0  0  0  0  0  0  0  0  0
   21.8254    0.3523  -10.6092 C   0  0  0  0  0  0  0  0  0  0  0  0
   20.5491    0.7703  -10.1911 C   0  0  0  0  0  0  0  0  0  0  0  0
   19.5247   -0.1473  -10.2124 C   0  0  0  0  0  0  0  0  0  0  0  0
   18.2894    0.2010   -9.8237 F   0  0  0  0  0  0  0  0  0  0  0  0
   19.7569   -1.4440  -10.6360 C   0  0  0  0  0  0  0  0  0  0  0  0
   21.0065   -1.8483  -11.0440 C   0  0  0  0  0  0  0  0  0  0  0  0
   22.0664   -0.9314  -11.0312 C   0  0  0  0  0  0  0  0  0  0  0  0
   23.3916   -1.0944  -11.3882 O   0  0  0  0  0  0  0  0  0  0  0  0
  2  1  1  1
  2  3  2  0
  2  4  2  0
  5  2  1  1
  6  5  1  6
  7  6  1  1
  8  7  1  1
  8  9  1  0
 10  9  1  6
  9 11  1  1
 11 12  1  0
 12 13  2  0
 13 14  1  0
 14 15  1  0
 14 16  2  0
 16 17  1  0
 17 18  2  0
 18 19  1  0
 10  5  1  0
 18 12  1  0
  9 19  1  0
M  END
$$$$
