_rank11
     RDKit          3D

 19 21  0  0  0  0  0  0  0  0999 V2000
   26.2871    0.6024   -7.0467 C   0  0  0  0  0  0  0  0  0  0  0  0
   27.2419    0.2917   -8.5133 S   0  0  1  0  0  6  0  0  0  0  0  0
   28.4461    1.1889   -8.4984 O   0  0  0  0  0  0  0  0  0  0  0  0
   27.6782   -1.1523   -8.4753 O   0  0  0  0  0  0  0  0  0  0  0  0
   26.2630    0.5555   -9.9753 C   0  0  1  0  0  0  0  0  0  0  0  0
   26.9917   -0.1002  -11.1238 C   0  0  0  0  0  0  0  0  0  0  0  0
   25.9193   -0.8073  -11.9614 C   0  0  0  0  0  0  0  0  0  0  0  0
   24.8108    0.2103  -12.1488 C   0  0  0  0  0  0  0  0  0  0  0  0
   23.9654    0.1043  -10.8817 C   0  0  1  0  0  0  0  0  0  0  0  0
   24.9112   -0.0614   -9.7240 C   0  0  0  0  0  0  0  0  0  0  0  0
   23.0453    1.1758  -10.7368 N   0  0  0  0  0  0  0  0  0  0  0  0
   21.7702    0.5961  -10.4818 C   0  0  0  0  0  0  0  0  0  0  0  0
   20.5437    1.1752  -10.1090 C   0  0  0  0  0  0  0  0  0  0  0  0
   19.4607    0.3464   -9.9302 C   0  0  0  0  0  0  0  0  0  0  0  0
   18.2693    0.8488   -9.5748 F   0  0  0  0  0  0  0  0  0  0  0  0
   19.5878   -1.0191  -10.1153 C   0  0  0  0  0  0  0  0  0  0  0  0
   20.7889   -1.5810  -10.4799 C   0  0  0  0  0  0  0  0  0  0  0  0
   21.9069   -0.7570  -10.6680 C   0  0  0  0  0  0  0  0  0  0  0  0
   23.2017   -1.0785  -11.0290 O   0  0  0  0  0  0  0  0  0  0  0  0
  2  1  1  1
  2  3  2  0
  2  4  2  0
  5  2  1  1
  6  5  1  6
  7  6  1  1
  8  7  1  1
  8  9  1  0
 10  9  1  6
  9 11  1  1
 11 12  1  0
 12 13  2  0
 13 14  1  0
 14 15  1  0
 14 16  2  0
 16 17  1  0
 17 18  2  0
 18 19  1  0
 10  5  1  0
 18 12  1  0
  9 19  1  0
M  END
$$$$
