_rank5
     RDKit          3D

 16 17  0  0  0  0  0  0  0  0999 V2000
   19.4986   -2.3713  -11.2350 C   0  0  0  0  0  0  0  0  0  0  0  0
   20.5528   -2.0415  -10.2364 C   0  0  1  0  0  0  0  0  0  0  0  0
   21.9542   -2.2512  -10.7201 C   0  0  0  0  0  0  0  0  0  0  0  0
   22.3865   -0.8779  -11.2483 C   0  0  2  0  0  0  0  0  0  0  0  0
   23.3197   -0.2746  -10.4142 O   0  0  0  0  0  0  0  0  0  0  0  0
   24.6733   -0.2194  -10.5855 C   0  0  0  0  0  0  0  0  0  0  0  0
   25.3244   -0.2030  -11.8009 C   0  0  0  0  0  0  0  0  0  0  0  0
   26.7139   -0.1453  -11.8596 C   0  0  0  0  0  0  0  0  0  0  0  0
   27.3599   -0.1289  -13.0545 F   0  0  0  0  0  0  0  0  0  0  0  0
   27.4816   -0.1028  -10.7185 C   0  0  0  0  0  0  0  0  0  0  0  0
   26.8382   -0.1188   -9.5000 C   0  0  0  0  0  0  0  0  0  0  0  0
   27.6441   -0.0740   -8.2911 C   0  0  0  0  0  0  0  0  0  0  0  0
   28.2957   -0.0252   -7.3407 N   0  0  0  0  0  0  0  0  0  0  0  0
   25.4679   -0.1759   -9.4551 C   0  0  0  0  0  0  0  0  0  0  0  0
   21.0780   -0.1114  -11.1134 C   0  0  0  0  0  0  0  0  0  0  0  0
   20.5159   -0.6782   -9.9698 O   0  0  0  0  0  0  0  0  0  0  0  0
  1  2  1  6
  3  2  1  1
  3  4  1  0
  4  5  1  1
  5  6  1  0
  6  7  2  0
  7  8  1  0
  8  9  1  0
  8 10  2  0
 10 11  1  0
 11 12  1  0
 12 13  3  0
 11 14  2  0
  4 15  1  0
 15 16  1  6
  2 16  1  6
 14  6  1  0
M  END
$$$$
