_rank6
     RDKit          3D

 16 17  0  0  0  0  0  0  0  0999 V2000
   19.3098   -1.6231  -11.5388 C   0  0  0  0  0  0  0  0  0  0  0  0
   20.4445   -1.8386  -10.5990 C   0  0  1  0  0  0  0  0  0  0  0  0
   21.7946   -1.8469  -11.2465 C   0  0  0  0  0  0  0  0  0  0  0  0
   22.2929   -0.4028  -11.1114 C   0  0  2  0  0  0  0  0  0  0  0  0
   23.3170   -0.2955  -10.1786 O   0  0  0  0  0  0  0  0  0  0  0  0
   24.6460   -0.0990  -10.4236 C   0  0  0  0  0  0  0  0  0  0  0  0
   25.2106    0.0788  -11.6690 C   0  0  0  0  0  0  0  0  0  0  0  0
   26.5825    0.2719  -11.8038 C   0  0  0  0  0  0  0  0  0  0  0  0
   27.1435    0.4475  -13.0286 F   0  0  0  0  0  0  0  0  0  0  0  0
   27.4177    0.2923  -10.7105 C   0  0  0  0  0  0  0  0  0  0  0  0
   26.8608    0.1154   -9.4625 C   0  0  0  0  0  0  0  0  0  0  0  0
   27.7382    0.1361   -8.3038 C   0  0  0  0  0  0  0  0  0  0  0  0
   28.4312    0.1722   -7.3826 N   0  0  0  0  0  0  0  0  0  0  0  0
   25.5071   -0.0741   -9.3424 C   0  0  0  0  0  0  0  0  0  0  0  0
   21.0546    0.2571  -10.5204 C   0  0  0  0  0  0  0  0  0  0  0  0
   20.5238   -0.7597   -9.7270 O   0  0  0  0  0  0  0  0  0  0  0  0
  1  2  1  6
  3  2  1  1
  3  4  1  0
  4  5  1  1
  5  6  1  0
  6  7  2  0
  7  8  1  0
  8  9  1  0
  8 10  2  0
 10 11  1  0
 11 12  1  0
 12 13  3  0
 11 14  2  0
  4 15  1  0
 15 16  1  6
  2 16  1  1
 14  6  1  0
M  END
$$$$
