_rank3
     RDKit          3D

 16 17  0  0  0  0  0  0  0  0999 V2000
   28.3611   -0.1716  -10.2458 C   0  0  0  0  0  0  0  0  0  0  0  0
   27.0809    0.4140   -9.7605 C   0  0  1  0  0  0  0  0  0  0  0  0
   25.9197    0.2228  -10.6864 C   0  0  0  0  0  0  0  0  0  0  0  0
   25.2316   -1.0506  -10.1797 C   0  0  2  0  0  0  0  0  0  0  0  0
   24.0206   -0.7706   -9.5589 O   0  0  0  0  0  0  0  0  0  0  0  0
   22.7708   -0.8478  -10.1037 C   0  0  0  0  0  0  0  0  0  0  0  0
   22.4312   -1.5791  -11.2223 C   0  0  0  0  0  0  0  0  0  0  0  0
   21.1212   -1.5866  -11.6930 C   0  0  0  0  0  0  0  0  0  0  0  0
   20.7817   -2.3054  -12.7946 F   0  0  0  0  0  0  0  0  0  0  0  0
   20.1267   -0.8719  -11.0659 C   0  0  0  0  0  0  0  0  0  0  0  0
   20.4583   -0.1386   -9.9472 C   0  0  0  0  0  0  0  0  0  0  0  0
   19.4117    0.6183   -9.2805 C   0  0  0  0  0  0  0  0  0  0  0  0
   18.5717    1.2018   -8.7474 N   0  0  0  0  0  0  0  0  0  0  0  0
   21.7531   -0.1392   -9.4929 C   0  0  0  0  0  0  0  0  0  0  0  0
   26.2177   -1.4814   -9.1026 C   0  0  0  0  0  0  0  0  0  0  0  0
   26.6789   -0.2594   -8.6134 O   0  0  0  0  0  0  0  0  0  0  0  0
  1  2  1  6
  3  2  1  1
  3  4  1  0
  4  5  1  1
  5  6  1  0
  6  7  2  0
  7  8  1  0
  8  9  1  0
  8 10  2  0
 10 11  1  0
 11 12  1  0
 12 13  3  0
 11 14  2  0
  4 15  1  0
 15 16  1  6
  2 16  1  1
 14  6  1  0
M  END
$$$$
