_rank10
     RDKit          3D

 16 17  0  0  0  0  0  0  0  0999 V2000
   19.3838   -1.8084  -11.4352 C   0  0  0  0  0  0  0  0  0  0  0  0
   20.3834   -1.7957  -10.3316 C   0  0  1  0  0  0  0  0  0  0  0  0
   21.7771   -2.1471  -10.7516 C   0  0  0  0  0  0  0  0  0  0  0  0
   22.4461   -0.7951  -11.0278 C   0  0  2  0  0  0  0  0  0  0  0  0
   23.3800   -0.4724  -10.0510 O   0  0  0  0  0  0  0  0  0  0  0  0
   24.7395   -0.4484  -10.1776 C   0  0  0  0  0  0  0  0  0  0  0  0
   25.4407   -0.7689  -11.3208 C   0  0  0  0  0  0  0  0  0  0  0  0
   26.8313   -0.7100  -11.3388 C   0  0  0  0  0  0  0  0  0  0  0  0
   27.5267   -1.0247  -12.4626 F   0  0  0  0  0  0  0  0  0  0  0  0
   27.5505   -0.3336  -10.2278 C   0  0  0  0  0  0  0  0  0  0  0  0
   26.8567   -0.0117   -9.0815 C   0  0  0  0  0  0  0  0  0  0  0  0
   27.6112    0.3867   -7.9047 C   0  0  0  0  0  0  0  0  0  0  0  0
   28.1974    0.6921   -6.9595 N   0  0  0  0  0  0  0  0  0  0  0  0
   25.4860   -0.0737   -9.0761 C   0  0  0  0  0  0  0  0  0  0  0  0
   21.2543    0.1369  -10.8577 C   0  0  0  0  0  0  0  0  0  0  0  0
   20.5194   -0.4971   -9.8562 O   0  0  0  0  0  0  0  0  0  0  0  0
  1  2  1  6
  3  2  1  1
  3  4  1  0
  4  5  1  1
  5  6  1  0
  6  7  2  0
  7  8  1  0
  8  9  1  0
  8 10  2  0
 10 11  1  0
 11 12  1  0
 12 13  3  0
 11 14  2  0
  4 15  1  0
 15 16  1  6
  2 16  1  6
 14  6  1  0
M  END
$$$$
