_rank18
     RDKit          3D

 16 17  0  0  0  0  0  0  0  0999 V2000
   28.1442    1.1389  -11.9990 C   0  0  0  0  0  0  0  0  0  0  0  0
   27.3725    0.6237  -10.8344 C   0  0  1  0  0  0  0  0  0  0  0  0
   25.9966    1.1985  -10.6973 C   0  0  0  0  0  0  0  0  0  0  0  0
   25.0884    0.1936  -11.4164 C   0  0  2  0  0  0  0  0  0  0  0  0
   24.3098   -0.5302  -10.5218 O   0  0  0  0  0  0  0  0  0  0  0  0
   23.0500   -1.0174  -10.7229 C   0  0  0  0  0  0  0  0  0  0  0  0
   22.4466   -1.1883  -11.9510 C   0  0  0  0  0  0  0  0  0  0  0  0
   21.1532   -1.6950  -12.0404 C   0  0  0  0  0  0  0  0  0  0  0  0
   20.5545   -1.8652  -13.2479 F   0  0  0  0  0  0  0  0  0  0  0  0
   20.4361   -2.0405  -10.9181 C   0  0  0  0  0  0  0  0  0  0  0  0
   21.0324   -1.8726   -9.6872 C   0  0  0  0  0  0  0  0  0  0  0  0
   20.2795   -2.2360   -8.4981 C   0  0  0  0  0  0  0  0  0  0  0  0
   19.6983   -2.5342   -7.5476 N   0  0  0  0  0  0  0  0  0  0  0  0
   22.3079   -1.3722   -9.6119 C   0  0  0  0  0  0  0  0  0  0  0  0
   26.1333   -0.7513  -11.9938 C   0  0  0  0  0  0  0  0  0  0  0  0
   27.1271   -0.7320  -11.0154 O   0  0  0  0  0  0  0  0  0  0  0  0
  1  2  1  6
  3  2  1  1
  3  4  1  0
  4  5  1  1
  5  6  1  0
  6  7  2  0
  7  8  1  0
  8  9  1  0
  8 10  2  0
 10 11  1  0
 11 12  1  0
 12 13  3  0
 11 14  2  0
  4 15  1  0
 15 16  1  6
  2 16  1  6
 14  6  1  0
M  END
$$$$
