_rank11
     RDKit          3D

 16 17  0  0  0  0  0  0  0  0999 V2000
   19.5768   -1.9683  -11.5330 C   0  0  0  0  0  0  0  0  0  0  0  0
   20.7293   -1.9739  -10.5901 C   0  0  1  0  0  0  0  0  0  0  0  0
   22.0645   -1.7808  -11.2397 C   0  0  0  0  0  0  0  0  0  0  0  0
   22.3231   -0.2723  -11.1424 C   0  0  2  0  0  0  0  0  0  0  0  0
   23.3143    0.0225  -10.2145 O   0  0  0  0  0  0  0  0  0  0  0  0
   24.6655    0.0145  -10.4122 C   0  0  0  0  0  0  0  0  0  0  0  0
   25.2927   -0.0373  -11.6392 C   0  0  0  0  0  0  0  0  0  0  0  0
   26.6820   -0.0406  -11.7250 C   0  0  0  0  0  0  0  0  0  0  0  0
   27.3045   -0.0915  -12.9314 F   0  0  0  0  0  0  0  0  0  0  0  0
   27.4730    0.0072  -10.6002 C   0  0  0  0  0  0  0  0  0  0  0  0
   26.8535    0.0591   -9.3703 C   0  0  0  0  0  0  0  0  0  0  0  0
   27.6842    0.1098   -8.1786 C   0  0  0  0  0  0  0  0  0  0  0  0
   28.3457    0.1698   -7.2357 N   0  0  0  0  0  0  0  0  0  0  0  0
   25.4833    0.0618   -9.2986 C   0  0  0  0  0  0  0  0  0  0  0  0
   20.9932    0.1940  -10.5661 C   0  0  0  0  0  0  0  0  0  0  0  0
   20.6315   -0.8745   -9.7459 O   0  0  0  0  0  0  0  0  0  0  0  0
  1  2  1  6
  3  2  1  1
  3  4  1  0
  4  5  1  1
  5  6  1  0
  6  7  2  0
  7  8  1  0
  8  9  1  0
  8 10  2  0
 10 11  1  0
 11 12  1  0
 12 13  3  0
 11 14  2  0
  4 15  1  0
 15 16  1  6
  2 16  1  1
 14  6  1  0
M  END
$$$$
