_rank15
     RDKit          3D

 16 17  0  0  0  0  0  0  0  0999 V2000
   19.5653   -2.1235  -11.1324 C   0  0  0  0  0  0  0  0  0  0  0  0
   20.5474   -1.5077  -10.1977 C   0  0  1  0  0  0  0  0  0  0  0  0
   21.9505   -2.0069  -10.3534 C   0  0  0  0  0  0  0  0  0  0  0  0
   22.6118   -1.0008  -11.3033 C   0  0  2  0  0  0  0  0  0  0  0  0
   23.5274   -0.1916  -10.6420 O   0  0  0  0  0  0  0  0  0  0  0  0
   24.8298   -0.4791  -10.3491 C   0  0  0  0  0  0  0  0  0  0  0  0
   25.6251   -1.3705  -11.0377 C   0  0  0  0  0  0  0  0  0  0  0  0
   26.9446   -1.5877  -10.6513 C   0  0  0  0  0  0  0  0  0  0  0  0
   27.7321   -2.4648  -11.3265 F   0  0  0  0  0  0  0  0  0  0  0  0
   27.4987   -0.9276   -9.5786 C   0  0  0  0  0  0  0  0  0  0  0  0
   26.7101   -0.0351   -8.8853 C   0  0  0  0  0  0  0  0  0  0  0  0
   27.2901    0.6651   -7.7513 C   0  0  0  0  0  0  0  0  0  0  0  0
   27.7586    1.2340   -6.8641 N   0  0  0  0  0  0  0  0  0  0  0  0
   25.4108    0.1704   -9.2760 C   0  0  0  0  0  0  0  0  0  0  0  0
   21.4092   -0.1410  -11.6674 C   0  0  0  0  0  0  0  0  0  0  0  0
   20.6644   -0.1539  -10.4883 O   0  0  0  0  0  0  0  0  0  0  0  0
  1  2  1  6
  3  2  1  1
  3  4  1  0
  4  5  1  1
  5  6  1  0
  6  7  2  0
  7  8  1  0
  8  9  1  0
  8 10  2  0
 10 11  1  0
 11 12  1  0
 12 13  3  0
 11 14  2  0
  4 15  1  0
 15 16  1  6
  2 16  1  6
 14  6  1  0
M  END
$$$$
