_rank14
     RDKit          3D

 16 17  0  0  0  0  0  0  0  0999 V2000
   27.8559    0.2921  -10.9638 C   0  0  0  0  0  0  0  0  0  0  0  0
   26.6964   -0.5942  -11.2597 C   0  0  1  0  0  0  0  0  0  0  0  0
   25.6419   -0.6134  -10.1968 C   0  0  0  0  0  0  0  0  0  0  0  0
   24.6233    0.4400  -10.6489 C   0  0  2  0  0  0  0  0  0  0  0  0
   23.4440   -0.1418  -11.0976 O   0  0  0  0  0  0  0  0  0  0  0  0
   22.3360   -0.4474  -10.3604 C   0  0  0  0  0  0  0  0  0  0  0  0
   22.1746   -1.5827   -9.5946 C   0  0  0  0  0  0  0  0  0  0  0  0
   20.9988   -1.7943   -8.8803 C   0  0  0  0  0  0  0  0  0  0  0  0
   20.8351   -2.9112   -8.1245 F   0  0  0  0  0  0  0  0  0  0  0  0
   19.9643   -0.8876   -8.9115 C   0  0  0  0  0  0  0  0  0  0  0  0
   20.1181    0.2496   -9.6746 C   0  0  0  0  0  0  0  0  0  0  0  0
   19.0285    1.2110   -9.7114 C   0  0  0  0  0  0  0  0  0  0  0  0
   18.1575    1.9669   -9.7228 N   0  0  0  0  0  0  0  0  0  0  0  0
   21.2819    0.4468  -10.3743 C   0  0  0  0  0  0  0  0  0  0  0  0
   25.3473    1.0157  -11.8582 C   0  0  0  0  0  0  0  0  0  0  0  0
   26.0157   -0.0985  -12.3650 O   0  0  0  0  0  0  0  0  0  0  0  0
  1  2  1  6
  3  2  1  1
  3  4  1  0
  4  5  1  6
  5  6  1  0
  6  7  2  0
  7  8  1  0
  8  9  1  0
  8 10  2  0
 10 11  1  0
 11 12  1  0
 12 13  3  0
 11 14  2  0
  4 15  1  0
 15 16  1  6
  2 16  1  6
 14  6  1  0
M  END
$$$$
