_rank12
     RDKit          3D

 16 17  0  0  0  0  0  0  0  0999 V2000
   19.4794   -2.1676  -11.3664 C   0  0  0  0  0  0  0  0  0  0  0  0
   20.5417   -1.8652  -10.3678 C   0  0  1  0  0  0  0  0  0  0  0  0
   21.9385   -2.0840  -10.8609 C   0  0  0  0  0  0  0  0  0  0  0  0
   22.3846   -0.7081  -11.3704 C   0  0  2  0  0  0  0  0  0  0  0  0
   23.3284   -0.1284  -10.5316 O   0  0  0  0  0  0  0  0  0  0  0  0
   24.6839   -0.2901  -10.5695 C   0  0  0  0  0  0  0  0  0  0  0  0
   25.4095   -0.6918  -11.6711 C   0  0  0  0  0  0  0  0  0  0  0  0
   26.7932   -0.8244  -11.5980 C   0  0  0  0  0  0  0  0  0  0  0  0
   27.5126   -1.2198  -12.6805 F   0  0  0  0  0  0  0  0  0  0  0  0
   27.4813   -0.5622  -10.4357 C   0  0  0  0  0  0  0  0  0  0  0  0
   26.7630   -0.1602   -9.3305 C   0  0  0  0  0  0  0  0  0  0  0  0
   27.4846    0.1182   -8.0998 C   0  0  0  0  0  0  0  0  0  0  0  0
   28.0412    0.3492   -7.1164 N   0  0  0  0  0  0  0  0  0  0  0  0
   25.3994   -0.0332   -9.4149 C   0  0  0  0  0  0  0  0  0  0  0  0
   21.0858    0.0716  -11.2180 C   0  0  0  0  0  0  0  0  0  0  0  0
   20.5221   -0.5058  -10.0805 O   0  0  0  0  0  0  0  0  0  0  0  0
  1  2  1  6
  3  2  1  1
  3  4  1  0
  4  5  1  1
  5  6  1  0
  6  7  2  0
  7  8  1  0
  8  9  1  0
  8 10  2  0
 10 11  1  0
 11 12  1  0
 12 13  3  0
 11 14  2  0
  4 15  1  0
 15 16  1  6
  2 16  1  6
 14  6  1  0
M  END
$$$$
