_rank13
     RDKit          3D

 16 17  0  0  0  0  0  0  0  0999 V2000
   19.3733   -2.0313  -11.3405 C   0  0  0  0  0  0  0  0  0  0  0  0
   20.2716   -1.3712  -10.3532 C   0  0  1  0  0  0  0  0  0  0  0  0
   21.6653   -1.9176  -10.3188 C   0  0  0  0  0  0  0  0  0  0  0  0
   22.4576   -1.0055  -11.2634 C   0  0  2  0  0  0  0  0  0  0  0  0
   23.3252   -0.1720  -10.5685 O   0  0  0  0  0  0  0  0  0  0  0  0
   24.6888   -0.1484  -10.6392 C   0  0  0  0  0  0  0  0  0  0  0  0
   25.4323   -0.3399  -11.7846 C   0  0  0  0  0  0  0  0  0  0  0  0
   26.8229   -0.2947  -11.7423 C   0  0  0  0  0  0  0  0  0  0  0  0
   27.5598   -0.4827  -12.8680 F   0  0  0  0  0  0  0  0  0  0  0  0
   27.5003   -0.0596  -10.5680 C   0  0  0  0  0  0  0  0  0  0  0  0
   26.7641    0.1328   -9.4190 C   0  0  0  0  0  0  0  0  0  0  0  0
   27.4744    0.3816   -8.1755 C   0  0  0  0  0  0  0  0  0  0  0  0
   28.0489    0.5624   -7.1919 N   0  0  0  0  0  0  0  0  0  0  0  0
   25.3938    0.0859   -9.4735 C   0  0  0  0  0  0  0  0  0  0  0  0
   21.3305   -0.1450  -11.8179 C   0  0  0  0  0  0  0  0  0  0  0  0
   20.4651   -0.0474  -10.7285 O   0  0  0  0  0  0  0  0  0  0  0  0
  1  2  1  6
  3  2  1  1
  3  4  1  0
  4  5  1  1
  5  6  1  0
  6  7  2  0
  7  8  1  0
  8  9  1  0
  8 10  2  0
 10 11  1  0
 11 12  1  0
 12 13  3  0
 11 14  2  0
  4 15  1  0
 15 16  1  6
  2 16  1  6
 14  6  1  0
M  END
$$$$
