_rank8
     RDKit          3D

 16 17  0  0  0  0  0  0  0  0999 V2000
   19.3324   -1.8313  -11.3101 C   0  0  0  0  0  0  0  0  0  0  0  0
   20.4770   -2.0028  -10.3732 C   0  0  1  0  0  0  0  0  0  0  0  0
   21.8112   -2.1355  -11.0399 C   0  0  0  0  0  0  0  0  0  0  0  0
   22.3734   -0.7088  -11.0587 C   0  0  2  0  0  0  0  0  0  0  0  0
   23.4211   -0.5552  -10.1592 O   0  0  0  0  0  0  0  0  0  0  0  0
   24.7475   -0.4049  -10.4473 C   0  0  0  0  0  0  0  0  0  0  0  0
   25.2654   -0.0985  -11.6880 C   0  0  0  0  0  0  0  0  0  0  0  0
   26.6392    0.0316  -11.8698 C   0  0  0  0  0  0  0  0  0  0  0  0
   27.1543    0.3333  -13.0901 F   0  0  0  0  0  0  0  0  0  0  0  0
   27.5226   -0.1388  -10.8287 C   0  0  0  0  0  0  0  0  0  0  0  0
   27.0126   -0.4451   -9.5856 C   0  0  0  0  0  0  0  0  0  0  0  0
   27.9411   -0.6263   -8.4821 C   0  0  0  0  0  0  0  0  0  0  0  0
   28.6645   -0.7614   -7.5940 N   0  0  0  0  0  0  0  0  0  0  0  0
   25.6564   -0.5708   -9.4191 C   0  0  0  0  0  0  0  0  0  0  0  0
   21.1775    0.0610  -10.5155 C   0  0  0  0  0  0  0  0  0  0  0  0
   20.6211   -0.8472   -9.6151 O   0  0  0  0  0  0  0  0  0  0  0  0
  1  2  1  6
  3  2  1  1
  3  4  1  0
  4  5  1  1
  5  6  1  0
  6  7  2  0
  7  8  1  0
  8  9  1  0
  8 10  2  0
 10 11  1  0
 11 12  1  0
 12 13  3  0
 11 14  2  0
  4 15  1  0
 15 16  1  6
  2 16  1  1
 14  6  1  0
M  END
$$$$
