_rank2
     RDKit          3D

 16 17  0  0  0  0  0  0  0  0999 V2000
   27.5961   -0.3041  -11.7903 C   0  0  0  0  0  0  0  0  0  0  0  0
   26.6292    0.3747  -10.8839 C   0  0  1  0  0  0  0  0  0  0  0  0
   25.3797    0.8543  -11.5554 C   0  0  0  0  0  0  0  0  0  0  0  0
   24.3745   -0.2861  -11.3530 C   0  0  2  0  0  0  0  0  0  0  0  0
   23.3883    0.0522  -10.4346 O   0  0  0  0  0  0  0  0  0  0  0  0
   22.0793   -0.3367  -10.4408 C   0  0  0  0  0  0  0  0  0  0  0  0
   21.6013   -1.5233  -10.9555 C   0  0  0  0  0  0  0  0  0  0  0  0
   20.2420   -1.8192  -10.9089 C   0  0  0  0  0  0  0  0  0  0  0  0
   19.7662   -2.9869  -11.4145 F   0  0  0  0  0  0  0  0  0  0  0  0
   19.3340   -0.9475  -10.3531 C   0  0  0  0  0  0  0  0  0  0  0  0
   19.8041    0.2405   -9.8366 C   0  0  0  0  0  0  0  0  0  0  0  0
   18.8494    1.1653   -9.2482 C   0  0  0  0  0  0  0  0  0  0  0  0
   18.1056    1.9041   -8.7675 N   0  0  0  0  0  0  0  0  0  0  0  0
   21.1463    0.5208   -9.8884 C   0  0  0  0  0  0  0  0  0  0  0  0
   25.2747   -1.3293  -10.7055 C   0  0  0  0  0  0  0  0  0  0  0  0
   26.1520   -0.5444   -9.9575 O   0  0  0  0  0  0  0  0  0  0  0  0
  1  2  1  6
  3  2  1  1
  3  4  1  0
  4  5  1  1
  5  6  1  0
  6  7  2  0
  7  8  1  0
  8  9  1  0
  8 10  2  0
 10 11  1  0
 11 12  1  0
 12 13  3  0
 11 14  2  0
  4 15  1  0
 15 16  1  6
  2 16  1  1
 14  6  1  0
M  END
$$$$
