_rank19
     RDKit          3D

 16 17  0  0  0  0  0  0  0  0999 V2000
   27.7020    0.1298  -13.0220 C   0  0  0  0  0  0  0  0  0  0  0  0
   27.1409    0.3500  -11.6604 C   0  0  1  0  0  0  0  0  0  0  0  0
   25.9725    1.2852  -11.6136 C   0  0  0  0  0  0  0  0  0  0  0  0
   24.7453    0.3688  -11.6912 C   0  0  2  0  0  0  0  0  0  0  0  0
   24.0741    0.3012  -10.4765 O   0  0  0  0  0  0  0  0  0  0  0  0
   22.9172   -0.3708  -10.2033 C   0  0  0  0  0  0  0  0  0  0  0  0
   22.2149   -1.1485  -11.0996 C   0  0  0  0  0  0  0  0  0  0  0  0
   21.0424   -1.7914  -10.7130 C   0  0  0  0  0  0  0  0  0  0  0  0
   20.3469   -2.5587  -11.5923 F   0  0  0  0  0  0  0  0  0  0  0  0
   20.5458   -1.6760   -9.4350 C   0  0  0  0  0  0  0  0  0  0  0  0
   21.2421   -0.9005   -8.5335 C   0  0  0  0  0  0  0  0  0  0  0  0
   20.7222   -0.7750   -7.1819 C   0  0  0  0  0  0  0  0  0  0  0  0
   20.3274   -0.6680   -6.1035 N   0  0  0  0  0  0  0  0  0  0  0  0
   22.3967   -0.2717   -8.9265 C   0  0  0  0  0  0  0  0  0  0  0  0
   25.4240   -0.9743  -11.9227 C   0  0  0  0  0  0  0  0  0  0  0  0
   26.6043   -0.8429  -11.1914 O   0  0  0  0  0  0  0  0  0  0  0  0
  1  2  1  6
  3  2  1  1
  3  4  1  0
  4  5  1  1
  5  6  1  0
  6  7  2  0
  7  8  1  0
  8  9  1  0
  8 10  2  0
 10 11  1  0
 11 12  1  0
 12 13  3  0
 11 14  2  0
  4 15  1  0
 15 16  1  6
  2 16  1  6
 14  6  1  0
M  END
$$$$
