_rank17
     RDKit          3D

 16 17  0  0  0  0  0  0  0  0999 V2000
   28.9053    0.6170   -9.1748 C   0  0  0  0  0  0  0  0  0  0  0  0
   27.5818    0.2687   -8.5878 C   0  0  1  0  0  0  0  0  0  0  0  0
   26.4110    0.8954   -9.2795 C   0  0  0  0  0  0  0  0  0  0  0  0
   25.9527   -0.1624  -10.2909 C   0  0  2  0  0  0  0  0  0  0  0  0
   24.7514   -0.7501   -9.9143 O   0  0  0  0  0  0  0  0  0  0  0  0
   23.6212   -0.8862  -10.6685 C   0  0  0  0  0  0  0  0  0  0  0  0
   23.5229   -0.6119  -12.0163 C   0  0  0  0  0  0  0  0  0  0  0  0
   22.3168   -0.7867  -12.6887 C   0  0  0  0  0  0  0  0  0  0  0  0
   22.2149   -0.5179  -14.0165 F   0  0  0  0  0  0  0  0  0  0  0  0
   21.1892   -1.2353  -12.0401 C   0  0  0  0  0  0  0  0  0  0  0  0
   21.2796   -1.5116  -10.6931 C   0  0  0  0  0  0  0  0  0  0  0  0
   20.0916   -1.9858  -10.0026 C   0  0  0  0  0  0  0  0  0  0  0  0
   19.1588   -2.3606   -9.4373 N   0  0  0  0  0  0  0  0  0  0  0  0
   22.4741   -1.3352  -10.0413 C   0  0  0  0  0  0  0  0  0  0  0  0
   27.0531   -1.1999  -10.1154 C   0  0  0  0  0  0  0  0  0  0  0  0
   27.3528   -1.0912   -8.7576 O   0  0  0  0  0  0  0  0  0  0  0  0
  1  2  1  6
  3  2  1  1
  3  4  1  0
  4  5  1  1
  5  6  1  0
  6  7  2  0
  7  8  1  0
  8  9  1  0
  8 10  2  0
 10 11  1  0
 11 12  1  0
 12 13  3  0
 11 14  2  0
  4 15  1  0
 15 16  1  6
  2 16  1  6
 14  6  1  0
M  END
$$$$
