_rank9
     RDKit          3D

 16 17  0  0  0  0  0  0  0  0999 V2000
   19.1681   -1.4076   -9.7019 C   0  0  0  0  0  0  0  0  0  0  0  0
   20.0289   -0.4153  -10.4032 C   0  0  1  0  0  0  0  0  0  0  0  0
   21.2756   -0.0413   -9.6629 C   0  0  0  0  0  0  0  0  0  0  0  0
   22.3495   -0.9831  -10.2210 C   0  0  2  0  0  0  0  0  0  0  0  0
   23.2540   -0.3105  -11.0334 O   0  0  0  0  0  0  0  0  0  0  0  0
   24.6118   -0.2580  -10.8982 C   0  0  0  0  0  0  0  0  0  0  0  0
   25.5225   -0.4007  -11.9239 C   0  0  0  0  0  0  0  0  0  0  0  0
   26.8896   -0.3294  -11.6724 C   0  0  0  0  0  0  0  0  0  0  0  0
   27.7907   -0.4693  -12.6794 F   0  0  0  0  0  0  0  0  0  0  0  0
   27.3783   -0.1162  -10.4039 C   0  0  0  0  0  0  0  0  0  0  0  0
   26.4744    0.0273   -9.3736 C   0  0  0  0  0  0  0  0  0  0  0  0
   26.9849    0.2528   -8.0315 C   0  0  0  0  0  0  0  0  0  0  0  0
   27.3733    0.4420   -6.9621 N   0  0  0  0  0  0  0  0  0  0  0  0
   25.1292   -0.0449   -9.6341 C   0  0  0  0  0  0  0  0  0  0  0  0
   21.4938   -1.8712  -11.1137 C   0  0  0  0  0  0  0  0  0  0  0  0
   20.5195   -0.9846  -11.5719 O   0  0  0  0  0  0  0  0  0  0  0  0
  1  2  1  6
  3  2  1  1
  3  4  1  0
  4  5  1  6
  5  6  1  0
  6  7  2  0
  7  8  1  0
  8  9  1  0
  8 10  2  0
 10 11  1  0
 11 12  1  0
 12 13  3  0
 11 14  2  0
  4 15  1  0
 15 16  1  6
  2 16  1  6
 14  6  1  0
M  END
$$$$
