_rank20
     RDKit          3D

 20 21  0  0  0  0  0  0  0  0999 V2000
   27.5384   -0.5575  -13.9244 C   0  0  0  0  0  0  0  0  0  0  0  0
   26.3508   -0.2452  -13.0512 C   0  0  0  0  0  0  0  0  0  0  0  0
   25.1410   -0.5166  -13.6302 O   0  0  0  0  0  0  0  0  0  0  0  0
   24.1409    0.3743  -13.3250 C   0  0  1  0  0  0  0  0  0  0  0  0
   22.8476    0.0621  -14.0964 C   0  0  0  0  0  0  0  0  0  0  0  0
   22.5693   -1.6155  -13.4976 S   0  0  1  0  0  6  0  0  0  0  0  0
   21.1688   -1.8007  -13.0392 O   0  0  0  0  0  0  0  0  0  0  0  0
   23.0275   -2.6202  -14.4849 O   0  0  0  0  0  0  0  0  0  0  0  0
   23.6899   -1.5434  -12.0843 C   0  0  0  0  0  0  0  0  0  0  0  0
   23.6812   -0.0077  -11.8974 C   0  0  1  0  0  0  0  0  0  0  0  0
   24.5658    0.4057  -10.9410 O   0  0  0  0  0  0  0  0  0  0  0  0
   24.4443    0.1249   -9.5987 C   0  0  0  0  0  0  0  0  0  0  0  0
   23.2721   -0.2868   -9.0175 C   0  0  0  0  0  0  0  0  0  0  0  0
   23.2051   -0.5574   -7.6535 C   0  0  0  0  0  0  0  0  0  0  0  0
   22.0248   -0.9634   -7.1143 F   0  0  0  0  0  0  0  0  0  0  0  0
   24.2931   -0.4269   -6.8377 C   0  0  0  0  0  0  0  0  0  0  0  0
   25.4869   -0.0111   -7.4110 C   0  0  0  0  0  0  0  0  0  0  0  0
   26.6090    0.1155   -6.5265 C   0  0  0  0  0  0  0  0  0  0  0  0
   27.5214    0.2050   -5.8220 N   0  0  0  0  0  0  0  0  0  0  0  0
   25.5612    0.2575   -8.7536 C   0  0  0  0  0  0  0  0  0  0  0  0
  1  2  1  6
  2  3  1  6
  4  3  1  6
  5  4  1  1
  6  5  1  6
  6  7  2  0
  6  8  2  0
  6  9  1  0
  9 10  1  1
 10 11  1  1
 11 12  1  0
 12 13  2  0
 13 14  1  0
 14 15  1  0
 14 16  2  0
 16 17  1  0
 17 18  1  0
 18 19  3  0
 17 20  2  0
 10  4  1  0
 20 12  1  0
M  END
$$$$
