_rank17
     RDKit          3D

 20 21  0  0  0  0  0  0  0  0999 V2000
   28.4778   -2.2444  -11.4741 C   0  0  0  0  0  0  0  0  0  0  0  0
   28.3922   -1.2367  -10.3573 C   0  0  0  0  0  0  0  0  0  0  0  0
   27.1985   -0.5707  -10.2918 O   0  0  0  0  0  0  0  0  0  0  0  0
   26.5383   -0.6837   -9.0925 C   0  0  1  0  0  0  0  0  0  0  0  0
   26.8510    0.4977   -8.1588 C   0  0  0  0  0  0  0  0  0  0  0  0
   26.2723    1.8410   -9.2128 S   0  0  1  0  0  6  0  0  0  0  0  0
   25.3849    2.7695   -8.4671 O   0  0  0  0  0  0  0  0  0  0  0  0
   27.4011    2.5009   -9.9089 O   0  0  0  0  0  0  0  0  0  0  0  0
   25.3085    0.8339  -10.3595 C   0  0  0  0  0  0  0  0  0  0  0  0
   25.0583   -0.3652   -9.4145 C   0  0  1  0  0  0  0  0  0  0  0  0
   24.4310   -1.4032  -10.0448 O   0  0  0  0  0  0  0  0  0  0  0  0
   23.1537   -1.3430  -10.5547 C   0  0  0  0  0  0  0  0  0  0  0  0
   22.8803   -1.1078  -11.8781 C   0  0  0  0  0  0  0  0  0  0  0  0
   21.5682   -1.0572  -12.3406 C   0  0  0  0  0  0  0  0  0  0  0  0
   21.3378   -0.8217  -13.6598 F   0  0  0  0  0  0  0  0  0  0  0  0
   20.5015   -1.2376  -11.5064 C   0  0  0  0  0  0  0  0  0  0  0  0
   20.7618   -1.4766  -10.1641 C   0  0  0  0  0  0  0  0  0  0  0  0
   19.6197   -1.6615   -9.3162 C   0  0  0  0  0  0  0  0  0  0  0  0
   18.7065   -1.8243   -8.6260 N   0  0  0  0  0  0  0  0  0  0  0  0
   22.0512   -1.5280   -9.7006 C   0  0  0  0  0  0  0  0  0  0  0  0
  1  2  1  6
  2  3  1  6
  4  3  1  6
  5  4  1  1
  6  5  1  1
  6  7  2  0
  6  8  2  0
  6  9  1  0
  9 10  1  1
 10 11  1  6
 11 12  1  0
 12 13  2  0
 13 14  1  0
 14 15  1  0
 14 16  2  0
 16 17  1  0
 17 18  1  0
 18 19  3  0
 17 20  2  0
 10  4  1  0
 20 12  1  0
M  END
$$$$
