_rank4
     RDKit          3D

 20 21  0  0  0  0  0  0  0  0999 V2000
   26.0085    0.6113  -12.8865 C   0  0  0  0  0  0  0  0  0  0  0  0
   27.2393    1.0829  -12.1566 C   0  0  0  0  0  0  0  0  0  0  0  0
   27.2611    0.7622  -10.8265 O   0  0  0  0  0  0  0  0  0  0  0  0
   27.0560   -0.5674  -10.5487 C   0  0  1  0  0  0  0  0  0  0  0  0
   27.9062   -1.0359   -9.3558 C   0  0  0  0  0  0  0  0  0  0  0  0
   27.2747    0.1001   -8.1062 S   0  0  1  0  0  6  0  0  0  0  0  0
   26.9105   -0.6174   -6.8579 O   0  0  0  0  0  0  0  0  0  0  0  0
   28.1944    1.2441   -7.9078 O   0  0  0  0  0  0  0  0  0  0  0  0
   25.7891    0.6141   -8.9932 C   0  0  0  0  0  0  0  0  0  0  0  0
   25.6528   -0.6326   -9.8990 C   0  0  1  0  0  0  0  0  0  0  0  0
   24.6503   -0.5013  -10.8187 O   0  0  0  0  0  0  0  0  0  0  0  0
   23.3098   -0.6159  -10.5266 C   0  0  0  0  0  0  0  0  0  0  0  0
   22.6388    0.2573   -9.7088 C   0  0  0  0  0  0  0  0  0  0  0  0
   21.2813    0.0943   -9.4469 C   0  0  0  0  0  0  0  0  0  0  0  0
   20.6513    0.9809   -8.6309 F   0  0  0  0  0  0  0  0  0  0  0  0
   20.5605   -0.9331   -9.9867 C   0  0  0  0  0  0  0  0  0  0  0  0
   21.2253   -1.8253  -10.8164 C   0  0  0  0  0  0  0  0  0  0  0  0
   20.4392   -2.8918  -11.3662 C   0  0  0  0  0  0  0  0  0  0  0  0
   19.8025   -3.7570  -11.7936 N   0  0  0  0  0  0  0  0  0  0  0  0
   22.5623   -1.6717  -11.0794 C   0  0  0  0  0  0  0  0  0  0  0  0
  1  2  1  6
  2  3  1  6
  4  3  1  1
  5  4  1  1
  6  5  1  6
  6  7  2  0
  6  8  2  0
  6  9  1  0
  9 10  1  1
 10 11  1  6
 11 12  1  0
 12 13  2  0
 13 14  1  0
 14 15  1  0
 14 16  2  0
 16 17  1  0
 17 18  1  0
 18 19  3  0
 17 20  2  0
 10  4  1  0
 20 12  1  0
M  END
$$$$
