_rank11
     RDKit          3D

 20 21  0  0  0  0  0  0  0  0999 V2000
   27.4493    0.6903  -13.2393 C   0  0  0  0  0  0  0  0  0  0  0  0
   27.8563    0.5363  -11.7968 C   0  0  0  0  0  0  0  0  0  0  0  0
   26.8107    0.5451  -10.9140 O   0  0  0  0  0  0  0  0  0  0  0  0
   26.2697   -0.6888  -10.6460 C   0  0  1  0  0  0  0  0  0  0  0  0
   27.1386   -1.4876   -9.6600 C   0  0  0  0  0  0  0  0  0  0  0  0
   27.1093   -0.3358   -8.2733 S   0  0  1  0  0  6  0  0  0  0  0  0
   26.7751   -1.0280   -7.0025 O   0  0  0  0  0  0  0  0  0  0  0  0
   28.3492    0.4728   -8.2215 O   0  0  0  0  0  0  0  0  0  0  0  0
   25.7127    0.6615   -8.8330 C   0  0  0  0  0  0  0  0  0  0  0  0
   25.0505   -0.4063   -9.7355 C   0  0  1  0  0  0  0  0  0  0  0  0
   23.9864    0.0901  -10.4351 O   0  0  0  0  0  0  0  0  0  0  0  0
   22.6718   -0.0520  -10.0518 C   0  0  0  0  0  0  0  0  0  0  0  0
   21.8622   -1.0663  -10.4957 C   0  0  0  0  0  0  0  0  0  0  0  0
   20.5385   -1.1626  -10.0754 C   0  0  0  0  0  0  0  0  0  0  0  0
   19.7675   -2.1827  -10.5377 F   0  0  0  0  0  0  0  0  0  0  0  0
   19.9889   -0.2601   -9.2095 C   0  0  0  0  0  0  0  0  0  0  0  0
   20.7954    0.7724   -8.7512 C   0  0  0  0  0  0  0  0  0  0  0  0
   20.1872    1.7019   -7.8437 C   0  0  0  0  0  0  0  0  0  0  0  0
   19.6888    2.4584   -7.1253 N   0  0  0  0  0  0  0  0  0  0  0  0
   22.1002    0.8743   -9.1603 C   0  0  0  0  0  0  0  0  0  0  0  0
  1  2  1  6
  2  3  1  6
  4  3  1  1
  5  4  1  1
  6  5  1  6
  6  7  2  0
  6  8  2  0
  6  9  1  0
  9 10  1  1
 10 11  1  6
 11 12  1  0
 12 13  2  0
 13 14  1  0
 14 15  1  0
 14 16  2  0
 16 17  1  0
 17 18  1  0
 18 19  3  0
 17 20  2  0
 10  4  1  0
 20 12  1  0
M  END
$$$$
