_rank13
     RDKit          3D

 20 21  0  0  0  0  0  0  0  0999 V2000
   26.2191    4.0084  -11.2238 C   0  0  0  0  0  0  0  0  0  0  0  0
   25.3994    2.9597  -10.5179 C   0  0  0  0  0  0  0  0  0  0  0  0
   26.1391    1.9684   -9.9324 O   0  0  0  0  0  0  0  0  0  0  0  0
   26.4780    0.9305  -10.7661 C   0  0  1  0  0  0  0  0  0  0  0  0
   27.7700    0.2331  -10.3081 C   0  0  0  0  0  0  0  0  0  0  0  0
   27.2412   -0.2682   -8.6590 S   0  0  1  0  0  6  0  0  0  0  0  0
   27.5518   -1.6978   -8.4028 O   0  0  0  0  0  0  0  0  0  0  0  0
   27.7512    0.6629   -7.6261 O   0  0  0  0  0  0  0  0  0  0  0  0
   25.4676   -0.0444   -8.9089 C   0  0  0  0  0  0  0  0  0  0  0  0
   25.4602   -0.1914  -10.4489 C   0  0  1  0  0  0  0  0  0  0  0  0
   24.2301    0.0579  -10.9901 O   0  0  0  0  0  0  0  0  0  0  0  0
   23.1155   -0.7208  -10.7745 C   0  0  0  0  0  0  0  0  0  0  0  0
   23.0972   -1.7898   -9.9153 C   0  0  0  0  0  0  0  0  0  0  0  0
   21.9411   -2.5443   -9.7348 C   0  0  0  0  0  0  0  0  0  0  0  0
   21.9626   -3.5967   -8.8742 F   0  0  0  0  0  0  0  0  0  0  0  0
   20.7818   -2.2581  -10.3985 C   0  0  0  0  0  0  0  0  0  0  0  0
   20.7843   -1.1792  -11.2717 C   0  0  0  0  0  0  0  0  0  0  0  0
   19.5513   -0.9066  -11.9520 C   0  0  0  0  0  0  0  0  0  0  0  0
   18.5537   -0.7035  -12.5001 N   0  0  0  0  0  0  0  0  0  0  0  0
   21.9188   -0.4311  -11.4551 C   0  0  0  0  0  0  0  0  0  0  0  0
  1  2  1  6
  2  3  1  6
  4  3  1  1
  5  4  1  1
  6  5  1  6
  6  7  2  0
  6  8  2  0
  6  9  1  0
  9 10  1  1
 10 11  1  6
 11 12  1  0
 12 13  2  0
 13 14  1  0
 14 15  1  0
 14 16  2  0
 16 17  1  0
 17 18  1  0
 18 19  3  0
 17 20  2  0
 10  4  1  0
 20 12  1  0
M  END
$$$$
