_rank7
     RDKit          3D

 20 21  0  0  0  0  0  0  0  0999 V2000
   26.8758    3.5574  -11.6959 C   0  0  0  0  0  0  0  0  0  0  0  0
   26.8227    2.0784  -11.9784 C   0  0  0  0  0  0  0  0  0  0  0  0
   26.3706    1.3223  -10.9312 O   0  0  0  0  0  0  0  0  0  0  0  0
   26.1753   -0.0066  -11.2192 C   0  0  1  0  0  0  0  0  0  0  0  0
   27.2139   -0.8981  -10.5180 C   0  0  0  0  0  0  0  0  0  0  0  0
   26.8617   -0.4385   -8.8105 S   0  0  1  0  0  6  0  0  0  0  0  0
   26.7091   -1.6379   -7.9482 O   0  0  0  0  0  0  0  0  0  0  0  0
   27.8403    0.5542   -8.3096 O   0  0  0  0  0  0  0  0  0  0  0  0
   25.2565    0.3321   -9.1069 C   0  0  0  0  0  0  0  0  0  0  0  0
   24.9140   -0.4122  -10.4192 C   0  0  1  0  0  0  0  0  0  0  0  0
   23.7645    0.0507  -10.9959 O   0  0  0  0  0  0  0  0  0  0  0  0
   22.4999   -0.3700  -10.6510 C   0  0  0  0  0  0  0  0  0  0  0  0
   22.0899   -1.6760  -10.7372 C   0  0  0  0  0  0  0  0  0  0  0  0
   20.7978   -2.0467  -10.3748 C   0  0  0  0  0  0  0  0  0  0  0  0
   20.4288   -3.3516  -10.4743 F   0  0  0  0  0  0  0  0  0  0  0  0
   19.8863   -1.1360   -9.9208 C   0  0  0  0  0  0  0  0  0  0  0  0
   20.2861    0.1900   -9.8280 C   0  0  0  0  0  0  0  0  0  0  0  0
   19.3049    1.1197   -9.3479 C   0  0  0  0  0  0  0  0  0  0  0  0
   18.5087    1.8715   -8.9769 N   0  0  0  0  0  0  0  0  0  0  0  0
   21.5569    0.5632  -10.1829 C   0  0  0  0  0  0  0  0  0  0  0  0
  1  2  1  6
  2  3  1  6
  4  3  1  1
  5  4  1  1
  6  5  1  6
  6  7  2  0
  6  8  2  0
  6  9  1  0
  9 10  1  1
 10 11  1  6
 11 12  1  0
 12 13  2  0
 13 14  1  0
 14 15  1  0
 14 16  2  0
 16 17  1  0
 17 18  1  0
 18 19  3  0
 17 20  2  0
 10  4  1  0
 20 12  1  0
M  END
$$$$
