_rank19
     RDKit          3D

 20 21  0  0  0  0  0  0  0  0999 V2000
   22.1906   -2.4108  -10.6112 C   0  0  0  0  0  0  0  0  0  0  0  0
   22.9342   -2.1857  -11.9021 C   0  0  0  0  0  0  0  0  0  0  0  0
   23.6589   -1.0254  -11.9380 O   0  0  0  0  0  0  0  0  0  0  0  0
   24.4958   -0.8995  -13.0200 C   0  0  1  0  0  0  0  0  0  0  0  0
   23.8943    0.0162  -14.0994 C   0  0  0  0  0  0  0  0  0  0  0  0
   23.7070    1.5147  -13.1145 S   0  0  1  0  0  6  0  0  0  0  0  0
   24.2584    2.6988  -13.8213 O   0  0  0  0  0  0  0  0  0  0  0  0
   22.3113    1.6774  -12.6458 O   0  0  0  0  0  0  0  0  0  0  0  0
   24.7912    1.0322  -11.7544 C   0  0  0  0  0  0  0  0  0  0  0  0
   25.6506    0.0090  -12.5340 C   0  0  1  0  0  0  0  0  0  0  0  0
   26.5281   -0.6577  -11.7254 O   0  0  0  0  0  0  0  0  0  0  0  0
   26.5869   -0.5119  -10.3577 C   0  0  0  0  0  0  0  0  0  0  0  0
   25.5435   -0.0372   -9.6044 C   0  0  0  0  0  0  0  0  0  0  0  0
   25.6572    0.0902   -8.2228 C   0  0  0  0  0  0  0  0  0  0  0  0
   24.6006    0.5647   -7.5105 F   0  0  0  0  0  0  0  0  0  0  0  0
   26.8021   -0.2482   -7.5587 C   0  0  0  0  0  0  0  0  0  0  0  0
   27.8670   -0.7302   -8.3071 C   0  0  0  0  0  0  0  0  0  0  0  0
   29.0534   -1.0759   -7.5788 C   0  0  0  0  0  0  0  0  0  0  0  0
   30.0089   -1.3397   -6.9836 N   0  0  0  0  0  0  0  0  0  0  0  0
   27.7631   -0.8587   -9.6683 C   0  0  0  0  0  0  0  0  0  0  0  0
  1  2  1  6
  2  3  1  6
  4  3  1  1
  5  4  1  1
  6  5  1  6
  6  7  2  0
  6  8  2  0
  6  9  1  0
  9 10  1  1
 10 11  1  1
 11 12  1  0
 12 13  2  0
 13 14  1  0
 14 15  1  0
 14 16  2  0
 16 17  1  0
 17 18  1  0
 18 19  3  0
 17 20  2  0
 10  4  1  0
 20 12  1  0
M  END
$$$$
