_rank14
     RDKit          3D

 20 21  0  0  0  0  0  0  0  0999 V2000
   26.6299    2.3345  -12.5267 C   0  0  0  0  0  0  0  0  0  0  0  0
   27.3536    1.0250  -12.3489 C   0  0  0  0  0  0  0  0  0  0  0  0
   27.4538    0.6105  -11.0486 O   0  0  0  0  0  0  0  0  0  0  0  0
   27.4352   -0.7518  -10.8728 C   0  0  1  0  0  0  0  0  0  0  0  0
   28.1866   -1.1700   -9.5978 C   0  0  0  0  0  0  0  0  0  0  0  0
   27.2186   -0.2424   -8.3923 S   0  0  1  0  0  6  0  0  0  0  0  0
   26.8165   -1.0989   -7.2476 O   0  0  0  0  0  0  0  0  0  0  0  0
   27.9038    1.0127   -8.0059 O   0  0  0  0  0  0  0  0  0  0  0  0
   25.7982    0.0990   -9.4525 C   0  0  0  0  0  0  0  0  0  0  0  0
   25.9887   -1.0827  -10.4327 C   0  0  1  0  0  0  0  0  0  0  0  0
   25.1078   -1.0406  -11.4769 O   0  0  0  0  0  0  0  0  0  0  0  0
   23.7496   -1.2286  -11.3539 C   0  0  0  0  0  0  0  0  0  0  0  0
   22.8768   -1.1351  -12.4079 C   0  0  0  0  0  0  0  0  0  0  0  0
   21.5110   -1.3350  -12.2270 C   0  0  0  0  0  0  0  0  0  0  0  0
   20.6777   -1.2338  -13.2967 F   0  0  0  0  0  0  0  0  0  0  0  0
   20.9808   -1.6307  -11.0031 C   0  0  0  0  0  0  0  0  0  0  0  0
   21.8512   -1.7288   -9.9264 C   0  0  0  0  0  0  0  0  0  0  0  0
   21.2618   -2.0404   -8.6563 C   0  0  0  0  0  0  0  0  0  0  0  0
   20.7777   -2.2772   -7.6334 N   0  0  0  0  0  0  0  0  0  0  0  0
   23.1978   -1.5333  -10.0962 C   0  0  0  0  0  0  0  0  0  0  0  0
  1  2  1  6
  2  3  1  6
  4  3  1  1
  5  4  1  1
  6  5  1  6
  6  7  2  0
  6  8  2  0
  6  9  1  0
  9 10  1  1
 10 11  1  6
 11 12  1  0
 12 13  2  0
 13 14  1  0
 14 15  1  0
 14 16  2  0
 16 17  1  0
 17 18  1  0
 18 19  3  0
 17 20  2  0
 10  4  1  0
 20 12  1  0
M  END
$$$$
