_rank15
     RDKit          3D

 20 21  0  0  0  0  0  0  0  0999 V2000
   26.0838    3.7036  -11.9284 C   0  0  0  0  0  0  0  0  0  0  0  0
   27.2105    2.9342  -11.2892 C   0  0  0  0  0  0  0  0  0  0  0  0
   26.8098    1.8291  -10.5887 O   0  0  0  0  0  0  0  0  0  0  0  0
   27.0370    0.6304  -11.2200 C   0  0  1  0  0  0  0  0  0  0  0  0
   28.1455   -0.1768  -10.5236 C   0  0  0  0  0  0  0  0  0  0  0  0
   27.3970   -0.3170   -8.8893 S   0  0  1  0  0  6  0  0  0  0  0  0
   27.4345   -1.7173   -8.3958 O   0  0  0  0  0  0  0  0  0  0  0  0
   27.9673    0.6774   -7.9513 O   0  0  0  0  0  0  0  0  0  0  0  0
   25.7166    0.1374   -9.3668 C   0  0  0  0  0  0  0  0  0  0  0  0
   25.8182   -0.2531  -10.8604 C   0  0  1  0  0  0  0  0  0  0  0  0
   24.7009    0.0944  -11.5668 O   0  0  0  0  0  0  0  0  0  0  0  0
   23.5130   -0.6004  -11.5305 C   0  0  0  0  0  0  0  0  0  0  0  0
   22.9288   -1.1537  -12.6413 C   0  0  0  0  0  0  0  0  0  0  0  0
   21.7252   -1.8471  -12.5476 C   0  0  0  0  0  0  0  0  0  0  0  0
   21.1773   -2.3814  -13.6715 F   0  0  0  0  0  0  0  0  0  0  0  0
   21.0757   -2.0074  -11.3565 C   0  0  0  0  0  0  0  0  0  0  0  0
   21.6542   -1.4532  -10.2231 C   0  0  0  0  0  0  0  0  0  0  0  0
   20.9465   -1.6400   -8.9895 C   0  0  0  0  0  0  0  0  0  0  0  0
   20.3846   -1.7776   -7.9884 N   0  0  0  0  0  0  0  0  0  0  0  0
   22.8395   -0.7688  -10.3069 C   0  0  0  0  0  0  0  0  0  0  0  0
  1  2  1  6
  2  3  1  6
  4  3  1  1
  5  4  1  1
  6  5  1  6
  6  7  2  0
  6  8  2  0
  6  9  1  0
  9 10  1  1
 10 11  1  6
 11 12  1  0
 12 13  2  0
 13 14  1  0
 14 15  1  0
 14 16  2  0
 16 17  1  0
 17 18  1  0
 18 19  3  0
 17 20  2  0
 10  4  1  0
 20 12  1  0
M  END
$$$$
