_rank3
     RDKit          3D

 20 21  0  0  0  0  0  0  0  0999 V2000
   27.2042    1.3045  -13.0782 C   0  0  0  0  0  0  0  0  0  0  0  0
   27.3219    0.1154  -12.1605 C   0  0  0  0  0  0  0  0  0  0  0  0
   26.6853    0.2680  -10.9588 O   0  0  0  0  0  0  0  0  0  0  0  0
   26.0993   -0.8725  -10.4658 C   0  0  1  0  0  0  0  0  0  0  0  0
   26.9418   -1.5047   -9.3451 C   0  0  0  0  0  0  0  0  0  0  0  0
   26.9620   -0.1131   -8.1989 S   0  0  1  0  0  6  0  0  0  0  0  0
   26.6075   -0.5417   -6.8218 O   0  0  0  0  0  0  0  0  0  0  0  0
   28.2318    0.6433   -8.2961 O   0  0  0  0  0  0  0  0  0  0  0  0
   25.6016    0.8138   -8.9395 C   0  0  0  0  0  0  0  0  0  0  0  0
   24.8956   -0.3784   -9.6278 C   0  0  1  0  0  0  0  0  0  0  0  0
   23.8479    0.0181  -10.4109 O   0  0  0  0  0  0  0  0  0  0  0  0
   22.5568   -0.4380  -10.2684 C   0  0  0  0  0  0  0  0  0  0  0  0
   22.1806   -1.7309  -10.5295 C   0  0  0  0  0  0  0  0  0  0  0  0
   20.8594   -2.1391  -10.3684 C   0  0  0  0  0  0  0  0  0  0  0  0
   20.5256   -3.4294  -10.6373 F   0  0  0  0  0  0  0  0  0  0  0  0
   19.8849   -1.2794   -9.9467 C   0  0  0  0  0  0  0  0  0  0  0  0
   20.2498    0.0326   -9.6784 C   0  0  0  0  0  0  0  0  0  0  0  0
   19.2027    0.9083   -9.2379 C   0  0  0  0  0  0  0  0  0  0  0  0
   18.3680    1.6184   -8.8692 N   0  0  0  0  0  0  0  0  0  0  0  0
   21.5490    0.4425   -9.8346 C   0  0  0  0  0  0  0  0  0  0  0  0
  1  2  1  6
  2  3  1  6
  4  3  1  1
  5  4  1  1
  6  5  1  6
  6  7  2  0
  6  8  2  0
  6  9  1  0
  9 10  1  1
 10 11  1  6
 11 12  1  0
 12 13  2  0
 13 14  1  0
 14 15  1  0
 14 16  2  0
 16 17  1  0
 17 18  1  0
 18 19  3  0
 17 20  2  0
 10  4  1  0
 20 12  1  0
M  END
$$$$
