_rank9
     RDKit          3D

 20 21  0  0  0  0  0  0  0  0999 V2000
   26.1947   -1.2926  -13.1424 C   0  0  0  0  0  0  0  0  0  0  0  0
   26.3257   -1.5847  -11.6701 C   0  0  0  0  0  0  0  0  0  0  0  0
   26.1269   -0.4984  -10.8620 O   0  0  0  0  0  0  0  0  0  0  0  0
   25.3458   -0.7349   -9.7570 C   0  0  1  0  0  0  0  0  0  0  0  0
   26.1985   -0.9712   -8.4991 C   0  0  0  0  0  0  0  0  0  0  0  0
   27.0866    0.5976   -8.4711 S   0  0  1  0  0  6  0  0  0  0  0  0
   27.0461    1.2179   -7.1223 O   0  0  0  0  0  0  0  0  0  0  0  0
   28.4478    0.4534   -9.0372 O   0  0  0  0  0  0  0  0  0  0  0  0
   26.0074    1.4924   -9.6081 C   0  0  0  0  0  0  0  0  0  0  0  0
   24.7348    0.6396   -9.3925 C   0  0  1  0  0  0  0  0  0  0  0  0
   23.7203    0.9950  -10.2367 O   0  0  0  0  0  0  0  0  0  0  0  0
   22.4259    0.5385  -10.1291 C   0  0  0  0  0  0  0  0  0  0  0  0
   21.3797    1.3267   -9.7222 C   0  0  0  0  0  0  0  0  0  0  0  0
   20.0889    0.8131   -9.6311 C   0  0  0  0  0  0  0  0  0  0  0  0
   19.0780    1.6261   -9.2238 F   0  0  0  0  0  0  0  0  0  0  0  0
   19.8063   -0.4874   -9.9397 C   0  0  0  0  0  0  0  0  0  0  0  0
   20.8545   -1.2979  -10.3530 C   0  0  0  0  0  0  0  0  0  0  0  0
   20.5232   -2.6572  -10.6690 C   0  0  0  0  0  0  0  0  0  0  0  0
   20.2535   -3.7560  -10.9072 N   0  0  0  0  0  0  0  0  0  0  0  0
   22.1287   -0.7997  -10.4454 C   0  0  0  0  0  0  0  0  0  0  0  0
  1  2  1  6
  2  3  1  6
  4  3  1  6
  5  4  1  1
  6  5  1  1
  6  7  2  0
  6  8  2  0
  6  9  1  0
  9 10  1  1
 10 11  1  6
 11 12  1  0
 12 13  2  0
 13 14  1  0
 14 15  1  0
 14 16  2  0
 16 17  1  0
 17 18  1  0
 18 19  3  0
 17 20  2  0
 10  4  1  0
 20 12  1  0
M  END
$$$$
