_rank10
     RDKit          3D

 20 21  0  0  0  0  0  0  0  0999 V2000
   25.4246    2.3006  -12.4240 C   0  0  0  0  0  0  0  0  0  0  0  0
   26.4765    1.2404  -12.6230 C   0  0  0  0  0  0  0  0  0  0  0  0
   27.0922    0.8363  -11.4696 O   0  0  0  0  0  0  0  0  0  0  0  0
   26.9327   -0.4935  -11.1642 C   0  0  1  0  0  0  0  0  0  0  0  0
   27.9839   -0.9728  -10.1490 C   0  0  0  0  0  0  0  0  0  0  0  0
   27.5994    0.1604   -8.8005 S   0  0  1  0  0  6  0  0  0  0  0  0
   27.4652   -0.5612   -7.5094 O   0  0  0  0  0  0  0  0  0  0  0  0
   28.5473    1.2982   -8.7693 O   0  0  0  0  0  0  0  0  0  0  0  0
   25.9798    0.6874   -9.3984 C   0  0  0  0  0  0  0  0  0  0  0  0
   25.6718   -0.5540  -10.2688 C   0  0  1  0  0  0  0  0  0  0  0  0
   24.5187   -0.4123  -10.9888 O   0  0  0  0  0  0  0  0  0  0  0  0
   23.2745   -0.7998  -10.5449 C   0  0  0  0  0  0  0  0  0  0  0  0
   22.7829   -0.4799   -9.3050 C   0  0  0  0  0  0  0  0  0  0  0  0
   21.5161   -0.8983   -8.9068 C   0  0  0  0  0  0  0  0  0  0  0  0
   21.0639   -0.5611   -7.6696 F   0  0  0  0  0  0  0  0  0  0  0  0
   20.7111   -1.6399   -9.7242 C   0  0  0  0  0  0  0  0  0  0  0  0
   21.1944   -1.9718  -10.9823 C   0  0  0  0  0  0  0  0  0  0  0  0
   20.3240   -2.7508  -11.8148 C   0  0  0  0  0  0  0  0  0  0  0  0
   19.6322   -3.3923  -12.4831 N   0  0  0  0  0  0  0  0  0  0  0  0
   22.4409   -1.5636  -11.3821 C   0  0  0  0  0  0  0  0  0  0  0  0
  1  2  1  6
  2  3  1  6
  4  3  1  1
  5  4  1  1
  6  5  1  6
  6  7  2  0
  6  8  2  0
  6  9  1  0
  9 10  1  1
 10 11  1  6
 11 12  1  0
 12 13  2  0
 13 14  1  0
 14 15  1  0
 14 16  2  0
 16 17  1  0
 17 18  1  0
 18 19  3  0
 17 20  2  0
 10  4  1  0
 20 12  1  0
M  END
$$$$
