_rank6
     RDKit          3D

 20 21  0  0  0  0  0  0  0  0999 V2000
   25.7472    3.0034  -11.8544 C   0  0  0  0  0  0  0  0  0  0  0  0
   26.6018    1.7753  -12.0317 C   0  0  0  0  0  0  0  0  0  0  0  0
   26.7574    1.0302  -10.8945 O   0  0  0  0  0  0  0  0  0  0  0  0
   26.4785   -0.3074  -11.0368 C   0  0  1  0  0  0  0  0  0  0  0  0
   27.4783   -1.1814  -10.2610 C   0  0  0  0  0  0  0  0  0  0  0  0
   27.1907   -0.5245   -8.6068 S   0  0  1  0  0  6  0  0  0  0  0  0
   26.9870   -1.6153   -7.6197 O   0  0  0  0  0  0  0  0  0  0  0  0
   28.2362    0.4544   -8.2292 O   0  0  0  0  0  0  0  0  0  0  0  0
   25.6272    0.3062   -8.9585 C   0  0  0  0  0  0  0  0  0  0  0  0
   25.2134   -0.5498  -10.1789 C   0  0  1  0  0  0  0  0  0  0  0  0
   24.0807   -0.0815  -10.7837 O   0  0  0  0  0  0  0  0  0  0  0  0
   22.8013   -0.3957  -10.3839 C   0  0  0  0  0  0  0  0  0  0  0  0
   22.4380   -1.6361   -9.9248 C   0  0  0  0  0  0  0  0  0  0  0  0
   21.1283   -1.8997   -9.5329 C   0  0  0  0  0  0  0  0  0  0  0  0
   20.8070   -3.1420   -9.0833 F   0  0  0  0  0  0  0  0  0  0  0  0
   20.1530   -0.9446   -9.5867 C   0  0  0  0  0  0  0  0  0  0  0  0
   20.5050    0.3159  -10.0491 C   0  0  0  0  0  0  0  0  0  0  0  0
   19.4573    1.2946  -10.0927 C   0  0  0  0  0  0  0  0  0  0  0  0
   18.6111    2.0822  -10.1110 N   0  0  0  0  0  0  0  0  0  0  0  0
   21.7927    0.5836  -10.4370 C   0  0  0  0  0  0  0  0  0  0  0  0
  1  2  1  6
  2  3  1  6
  4  3  1  1
  5  4  1  1
  6  5  1  6
  6  7  2  0
  6  8  2  0
  6  9  1  0
  9 10  1  1
 10 11  1  6
 11 12  1  0
 12 13  2  0
 13 14  1  0
 14 15  1  0
 14 16  2  0
 16 17  1  0
 17 18  1  0
 18 19  3  0
 17 20  2  0
 10  4  1  0
 20 12  1  0
M  END
$$$$
