_rank18
     RDKit          3D

 18 19  0  0  0  0  0  0  0  0999 V2000
   23.2516   -1.2332   -7.1887 N   0  0  0  0  0  0  0  0  0  0  0  0
   22.9248   -1.1469   -8.2786 C   0  0  0  0  0  0  0  0  0  0  0  0
   22.4937   -1.0464   -9.6423 C   0  0  0  0  0  0  0  0  0  0  0  0
   21.3585   -1.7513  -10.0644 C   0  0  0  0  0  0  0  0  0  0  0  0
   20.9486   -1.6512  -11.3759 C   0  0  0  0  0  0  0  0  0  0  0  0
   19.7414   -2.3928  -11.8507 C   0  0  0  0  0  0  0  0  0  0  0  0
   19.9666   -3.8230  -11.7771 N   0  0  0  0  0  0  0  0  0  0  0  0
   21.6491   -0.8653  -12.2628 C   0  0  0  0  0  0  0  0  0  0  0  0
   22.7642   -0.1826  -11.8164 C   0  0  0  0  0  0  0  0  0  0  0  0
   23.2048   -0.2563  -10.5175 C   0  0  0  0  0  0  0  0  0  0  0  0
   24.2966    0.4133  -10.0845 O   0  0  0  0  0  0  0  0  0  0  0  0
   25.5960    0.0138  -10.0652 C   0  0  0  0  0  0  0  0  0  0  0  0
   26.3162   -0.3723  -11.1778 C   0  0  0  0  0  0  0  0  0  0  0  0
   27.6164   -0.7581  -11.0622 C   0  0  0  0  0  0  0  0  0  0  0  0
   28.2893   -0.7886   -9.8477 C   0  0  0  0  0  0  0  0  0  0  0  0
   27.5732   -0.4030   -8.7297 C   0  0  0  0  0  0  0  0  0  0  0  0
   28.1989   -0.4207   -7.5283 F   0  0  0  0  0  0  0  0  0  0  0  0
   26.2566   -0.0128   -8.8497 C   0  0  0  0  0  0  0  0  0  0  0  0
  1  2  3  0
  2  3  1  0
  3  4  2  0
  4  5  1  0
  5  6  1  0
  6  7  1  1
  5  8  2  0
  8  9  1  0
  9 10  2  0
 10 11  1  0
 11 12  1  0
 12 13  2  0
 13 14  1  0
 14 15  2  0
 15 16  1  0
 16 17  1  0
 16 18  2  0
 10  3  1  0
 18 12  1  0
M  END
$$$$
