_rank9
     RDKit          3D

 18 19  0  0  0  0  0  0  0  0999 V2000
   25.5015   -0.8749   -7.4195 N   0  0  0  0  0  0  0  0  0  0  0  0
   25.4407   -0.6499   -8.5365 C   0  0  0  0  0  0  0  0  0  0  0  0
   25.3493   -0.3842   -9.9424 C   0  0  0  0  0  0  0  0  0  0  0  0
   26.5135   -0.1131  -10.6740 C   0  0  0  0  0  0  0  0  0  0  0  0
   26.4200    0.1416  -12.0246 C   0  0  0  0  0  0  0  0  0  0  0  0
   27.6464    0.4334  -12.8268 C   0  0  0  0  0  0  0  0  0  0  0  0
   28.8309   -0.0050  -12.1152 N   0  0  0  0  0  0  0  0  0  0  0  0
   25.1932    0.1295  -12.6489 C   0  0  0  0  0  0  0  0  0  0  0  0
   24.0637   -0.1411  -11.9006 C   0  0  0  0  0  0  0  0  0  0  0  0
   24.1151   -0.3998  -10.5526 C   0  0  0  0  0  0  0  0  0  0  0  0
   23.0074   -0.6642   -9.8237 O   0  0  0  0  0  0  0  0  0  0  0  0
   21.6999   -0.5444  -10.1766 C   0  0  0  0  0  0  0  0  0  0  0  0
   21.0535    0.6542  -10.4030 C   0  0  0  0  0  0  0  0  0  0  0  0
   19.7385    0.6771  -10.7534 C   0  0  0  0  0  0  0  0  0  0  0  0
   18.9773   -0.4750  -10.9031 C   0  0  0  0  0  0  0  0  0  0  0  0
   19.6192   -1.6785  -10.6777 C   0  0  0  0  0  0  0  0  0  0  0  0
   18.9065   -2.8224  -10.8149 F   0  0  0  0  0  0  0  0  0  0  0  0
   20.9511   -1.6987  -10.3229 C   0  0  0  0  0  0  0  0  0  0  0  0
  1  2  3  0
  2  3  1  0
  3  4  2  0
  4  5  1  0
  5  6  1  0
  6  7  1  1
  5  8  2  0
  8  9  1  0
  9 10  2  0
 10 11  1  0
 11 12  1  0
 12 13  2  0
 13 14  1  0
 14 15  2  0
 15 16  1  0
 16 17  1  0
 16 18  2  0
 10  3  1  0
 18 12  1  0
M  END
$$$$
