_rank2
     RDKit          3D

 18 19  0  0  0  0  0  0  0  0999 V2000
   25.3893    0.3211  -13.8668 N   0  0  0  0  0  0  0  0  0  0  0  0
   25.4222    0.1432  -12.7402 C   0  0  0  0  0  0  0  0  0  0  0  0
   25.4420   -0.0737  -11.3231 C   0  0  0  0  0  0  0  0  0  0  0  0
   26.6064    0.2055  -10.5950 C   0  0  0  0  0  0  0  0  0  0  0  0
   26.6199   -0.0048   -9.2336 C   0  0  0  0  0  0  0  0  0  0  0  0
   27.8490    0.2852   -8.4348 C   0  0  0  0  0  0  0  0  0  0  0  0
   28.2093   -0.8642   -7.6281 N   0  0  0  0  0  0  0  0  0  0  0  0
   25.4988   -0.4849   -8.5953 C   0  0  0  0  0  0  0  0  0  0  0  0
   24.3661   -0.7506   -9.3405 C   0  0  0  0  0  0  0  0  0  0  0  0
   24.3127   -0.5544  -10.6989 C   0  0  0  0  0  0  0  0  0  0  0  0
   23.2023   -0.8157  -11.4247 O   0  0  0  0  0  0  0  0  0  0  0  0
   21.8962   -0.6707  -11.0762 C   0  0  0  0  0  0  0  0  0  0  0  0
   21.3674    0.4429  -10.4548 C   0  0  0  0  0  0  0  0  0  0  0  0
   20.0438    0.4994  -10.1428 C   0  0  0  0  0  0  0  0  0  0  0  0
   19.1580   -0.5334  -10.4214 C   0  0  0  0  0  0  0  0  0  0  0  0
   19.6817   -1.6514  -11.0437 C   0  0  0  0  0  0  0  0  0  0  0  0
   18.8457   -2.6781  -11.3303 F   0  0  0  0  0  0  0  0  0  0  0  0
   21.0226   -1.7060  -11.3586 C   0  0  0  0  0  0  0  0  0  0  0  0
  1  2  3  0
  2  3  1  0
  3  4  2  0
  4  5  1  0
  5  6  1  0
  6  7  1  1
  5  8  2  0
  8  9  1  0
  9 10  2  0
 10 11  1  0
 11 12  1  0
 12 13  2  0
 13 14  1  0
 14 15  2  0
 15 16  1  0
 16 17  1  0
 16 18  2  0
 10  3  1  0
 18 12  1  0
M  END
$$$$
