_rank13
     RDKit          3D

 18 19  0  0  0  0  0  0  0  0999 V2000
   25.3100   -0.2812   -7.3899 N   0  0  0  0  0  0  0  0  0  0  0  0
   25.3768   -0.2140   -8.5270 C   0  0  0  0  0  0  0  0  0  0  0  0
   25.4570   -0.1074   -9.9545 C   0  0  0  0  0  0  0  0  0  0  0  0
   26.7051   -0.1872  -10.5868 C   0  0  0  0  0  0  0  0  0  0  0  0
   26.7764   -0.0841  -11.9588 C   0  0  0  0  0  0  0  0  0  0  0  0
   28.0951   -0.1660  -12.6567 C   0  0  0  0  0  0  0  0  0  0  0  0
   28.4867    1.1397  -13.1502 N   0  0  0  0  0  0  0  0  0  0  0  0
   25.6310    0.0957  -12.7007 C   0  0  0  0  0  0  0  0  0  0  0  0
   24.4154    0.1705  -12.0483 C   0  0  0  0  0  0  0  0  0  0  0  0
   24.3025    0.0723  -10.6829 C   0  0  0  0  0  0  0  0  0  0  0  0
   23.1109    0.1459  -10.0482 O   0  0  0  0  0  0  0  0  0  0  0  0
   21.9084   -0.3682  -10.4193 C   0  0  0  0  0  0  0  0  0  0  0  0
   21.7395   -1.4063  -11.3136 C   0  0  0  0  0  0  0  0  0  0  0  0
   20.4936   -1.8563  -11.6260 C   0  0  0  0  0  0  0  0  0  0  0  0
   19.3369   -1.3151  -11.0798 C   0  0  0  0  0  0  0  0  0  0  0  0
   19.4995   -0.2752  -10.1835 C   0  0  0  0  0  0  0  0  0  0  0  0
   18.3921    0.2764   -9.6315 F   0  0  0  0  0  0  0  0  0  0  0  0
   20.7626    0.1786   -9.8690 C   0  0  0  0  0  0  0  0  0  0  0  0
  1  2  3  0
  2  3  1  0
  3  4  2  0
  4  5  1  0
  5  6  1  0
  6  7  1  1
  5  8  2  0
  8  9  1  0
  9 10  2  0
 10 11  1  0
 11 12  1  0
 12 13  2  0
 13 14  1  0
 14 15  2  0
 15 16  1  0
 16 17  1  0
 16 18  2  0
 10  3  1  0
 18 12  1  0
M  END
$$$$
