_rank3
     RDKit          3D

 18 19  0  0  0  0  0  0  0  0999 V2000
   26.0196    0.1498  -13.6455 N   0  0  0  0  0  0  0  0  0  0  0  0
   25.8833   -0.0040  -12.5231 C   0  0  0  0  0  0  0  0  0  0  0  0
   25.7346   -0.1961  -11.1101 C   0  0  0  0  0  0  0  0  0  0  0  0
   26.8571   -0.1057  -10.2760 C   0  0  0  0  0  0  0  0  0  0  0  0
   26.7086   -0.2911   -8.9190 C   0  0  0  0  0  0  0  0  0  0  0  0
   27.8898   -0.1999   -8.0085 C   0  0  0  0  0  0  0  0  0  0  0  0
   28.6342    1.0167   -8.2680 N   0  0  0  0  0  0  0  0  0  0  0  0
   25.4678   -0.5625   -8.3884 C   0  0  0  0  0  0  0  0  0  0  0  0
   24.3803   -0.6453   -9.2365 C   0  0  0  0  0  0  0  0  0  0  0  0
   24.4870   -0.4669  -10.5943 C   0  0  0  0  0  0  0  0  0  0  0  0
   23.4203   -0.5488  -11.4210 O   0  0  0  0  0  0  0  0  0  0  0  0
   22.1174   -0.7921  -11.1183 C   0  0  0  0  0  0  0  0  0  0  0  0
   21.4871   -2.0097  -11.2795 C   0  0  0  0  0  0  0  0  0  0  0  0
   20.1756   -2.1604  -10.9484 C   0  0  0  0  0  0  0  0  0  0  0  0
   19.4022   -1.1254  -10.4388 C   0  0  0  0  0  0  0  0  0  0  0  0
   20.0279    0.0965  -10.2750 C   0  0  0  0  0  0  0  0  0  0  0  0
   19.3030    1.1284   -9.7800 F   0  0  0  0  0  0  0  0  0  0  0  0
   21.3563    0.2463  -10.6112 C   0  0  0  0  0  0  0  0  0  0  0  0
  1  2  3  0
  2  3  1  0
  3  4  2  0
  4  5  1  0
  5  6  1  0
  6  7  1  1
  5  8  2  0
  8  9  1  0
  9 10  2  0
 10 11  1  0
 11 12  1  0
 12 13  2  0
 13 14  1  0
 14 15  2  0
 15 16  1  0
 16 17  1  0
 16 18  2  0
 10  3  1  0
 18 12  1  0
M  END
$$$$
