_rank17
     RDKit          3D

 18 19  0  0  0  0  0  0  0  0999 V2000
   25.9554   -1.4258   -8.0189 N   0  0  0  0  0  0  0  0  0  0  0  0
   25.8592   -1.0227   -9.0820 C   0  0  0  0  0  0  0  0  0  0  0  0
   25.7224   -0.5017  -10.4107 C   0  0  0  0  0  0  0  0  0  0  0  0
   26.8029    0.1584  -11.0114 C   0  0  0  0  0  0  0  0  0  0  0  0
   26.6661    0.6571  -12.2883 C   0  0  0  0  0  0  0  0  0  0  0  0
   27.8032    1.3648  -12.9508 C   0  0  0  0  0  0  0  0  0  0  0  0
   29.0517    0.6813  -12.6758 N   0  0  0  0  0  0  0  0  0  0  0  0
   25.4778    0.5076  -12.9670 C   0  0  0  0  0  0  0  0  0  0  0  0
   24.4309   -0.1479  -12.3480 C   0  0  0  0  0  0  0  0  0  0  0  0
   24.5277   -0.6590  -11.0768 C   0  0  0  0  0  0  0  0  0  0  0  0
   23.5008   -1.2999  -10.4744 O   0  0  0  0  0  0  0  0  0  0  0  0
   22.2174   -0.8872  -10.2985 C   0  0  0  0  0  0  0  0  0  0  0  0
   21.7523   -0.2194   -9.1833 C   0  0  0  0  0  0  0  0  0  0  0  0
   20.4470    0.1558   -9.0945 C   0  0  0  0  0  0  0  0  0  0  0  0
   19.5181   -0.1012  -10.0945 C   0  0  0  0  0  0  0  0  0  0  0  0
   19.9780   -0.7698  -11.2139 C   0  0  0  0  0  0  0  0  0  0  0  0
   19.0985   -1.0371  -12.2091 F   0  0  0  0  0  0  0  0  0  0  0  0
   21.3004   -1.1487  -11.3012 C   0  0  0  0  0  0  0  0  0  0  0  0
  1  2  3  0
  2  3  1  0
  3  4  2  0
  4  5  1  0
  5  6  1  0
  6  7  1  1
  5  8  2  0
  8  9  1  0
  9 10  2  0
 10 11  1  0
 11 12  1  0
 12 13  2  0
 13 14  1  0
 14 15  2  0
 15 16  1  0
 16 17  1  0
 16 18  2  0
 10  3  1  0
 18 12  1  0
M  END
$$$$
