_rank12
     RDKit          3D

 18 19  0  0  0  0  0  0  0  0999 V2000
   25.9702   -0.9717   -7.6602 N   0  0  0  0  0  0  0  0  0  0  0  0
   25.7815   -0.6635   -8.7425 C   0  0  0  0  0  0  0  0  0  0  0  0
   25.5449   -0.2980  -10.1085 C   0  0  0  0  0  0  0  0  0  0  0  0
   26.5817    0.2642  -10.8655 C   0  0  0  0  0  0  0  0  0  0  0  0
   26.3490    0.6135  -12.1776 C   0  0  0  0  0  0  0  0  0  0  0  0
   27.4378    1.2145  -13.0058 C   0  0  0  0  0  0  0  0  0  0  0  0
   28.7184    0.6327  -12.6548 N   0  0  0  0  0  0  0  0  0  0  0  0
   25.1084    0.4115  -12.7390 C   0  0  0  0  0  0  0  0  0  0  0  0
   24.1066   -0.1446  -11.9670 C   0  0  0  0  0  0  0  0  0  0  0  0
   24.2988   -0.5061  -10.6559 C   0  0  0  0  0  0  0  0  0  0  0  0
   23.3157   -1.0502   -9.9037 O   0  0  0  0  0  0  0  0  0  0  0  0
   21.9691   -0.9941  -10.0816 C   0  0  0  0  0  0  0  0  0  0  0  0
   21.1453   -2.0955  -10.2001 C   0  0  0  0  0  0  0  0  0  0  0  0
   19.8044   -1.9424  -10.3765 C   0  0  0  0  0  0  0  0  0  0  0  0
   19.1898   -0.6989  -10.4474 C   0  0  0  0  0  0  0  0  0  0  0  0
   20.0096    0.4080  -10.3293 C   0  0  0  0  0  0  0  0  0  0  0  0
   19.4432    1.6369  -10.3940 F   0  0  0  0  0  0  0  0  0  0  0  0
   21.3673    0.2500  -10.1508 C   0  0  0  0  0  0  0  0  0  0  0  0
  1  2  3  0
  2  3  1  0
  3  4  2  0
  4  5  1  0
  5  6  1  0
  6  7  1  1
  5  8  2  0
  8  9  1  0
  9 10  2  0
 10 11  1  0
 11 12  1  0
 12 13  2  0
 13 14  1  0
 14 15  2  0
 15 16  1  0
 16 17  1  0
 16 18  2  0
 10  3  1  0
 18 12  1  0
M  END
$$$$
