_rank4
     RDKit          3D

 18 19  0  0  0  0  0  0  0  0999 V2000
   25.5425    1.1283  -13.6742 N   0  0  0  0  0  0  0  0  0  0  0  0
   25.5440    0.7376  -12.6022 C   0  0  0  0  0  0  0  0  0  0  0  0
   25.5446    0.2255  -11.2630 C   0  0  0  0  0  0  0  0  0  0  0  0
   26.7596    0.0601  -10.5844 C   0  0  0  0  0  0  0  0  0  0  0  0
   26.7545   -0.4323   -9.2978 C   0  0  0  0  0  0  0  0  0  0  0  0
   28.0365   -0.6178   -8.5529 C   0  0  0  0  0  0  0  0  0  0  0  0
   28.5313    0.6582   -8.0747 N   0  0  0  0  0  0  0  0  0  0  0  0
   25.5656   -0.7586   -8.6853 C   0  0  0  0  0  0  0  0  0  0  0  0
   24.3844   -0.5843   -9.3803 C   0  0  0  0  0  0  0  0  0  0  0  0
   24.3474   -0.0964  -10.6638 C   0  0  0  0  0  0  0  0  0  0  0  0
   23.1893    0.0727  -11.3407 O   0  0  0  0  0  0  0  0  0  0  0  0
   21.9659   -0.4672  -11.0952 C   0  0  0  0  0  0  0  0  0  0  0  0
   21.7533   -1.7252  -10.5680 C   0  0  0  0  0  0  0  0  0  0  0  0
   20.4893   -2.1832  -10.3559 C   0  0  0  0  0  0  0  0  0  0  0  0
   19.3565   -1.4347  -10.6482 C   0  0  0  0  0  0  0  0  0  0  0  0
   19.5630   -0.1740  -11.1766 C   0  0  0  0  0  0  0  0  0  0  0  0
   18.4798    0.5836  -11.4736 F   0  0  0  0  0  0  0  0  0  0  0  0
   20.8442    0.2874  -11.3903 C   0  0  0  0  0  0  0  0  0  0  0  0
  1  2  3  0
  2  3  1  0
  3  4  2  0
  4  5  1  0
  5  6  1  0
  6  7  1  1
  5  8  2  0
  8  9  1  0
  9 10  2  0
 10 11  1  0
 11 12  1  0
 12 13  2  0
 13 14  1  0
 14 15  2  0
 15 16  1  0
 16 17  1  0
 16 18  2  0
 10  3  1  0
 18 12  1  0
M  END
$$$$
