_rank7
     RDKit          3D

 18 19  0  0  0  0  0  0  0  0999 V2000
   25.4019   -0.5021   -7.4052 N   0  0  0  0  0  0  0  0  0  0  0  0
   25.3077   -0.3316   -8.5294 C   0  0  0  0  0  0  0  0  0  0  0  0
   25.2115   -0.1133   -9.9432 C   0  0  0  0  0  0  0  0  0  0  0  0
   26.3640    0.1993  -10.6766 C   0  0  0  0  0  0  0  0  0  0  0  0
   26.2660    0.4081  -12.0348 C   0  0  0  0  0  0  0  0  0  0  0  0
   27.4800    0.7425  -12.8391 C   0  0  0  0  0  0  0  0  0  0  0  0
   28.4999    1.3300  -11.9927 N   0  0  0  0  0  0  0  0  0  0  0  0
   25.0459    0.3103  -12.6647 C   0  0  0  0  0  0  0  0  0  0  0  0
   23.9278    0.0007  -11.9144 C   0  0  0  0  0  0  0  0  0  0  0  0
   23.9841   -0.2146  -10.5590 C   0  0  0  0  0  0  0  0  0  0  0  0
   22.8876   -0.5174   -9.8282 O   0  0  0  0  0  0  0  0  0  0  0  0
   21.5997   -0.6684  -10.2366 C   0  0  0  0  0  0  0  0  0  0  0  0
   21.1312   -1.7308  -10.9834 C   0  0  0  0  0  0  0  0  0  0  0  0
   19.8215   -1.7979  -11.3475 C   0  0  0  0  0  0  0  0  0  0  0  0
   18.8912   -0.8266  -11.0011 C   0  0  0  0  0  0  0  0  0  0  0  0
   19.3543    0.2399  -10.2532 C   0  0  0  0  0  0  0  0  0  0  0  0
   18.4736    1.2060   -9.8976 F   0  0  0  0  0  0  0  0  0  0  0  0
   20.6813    0.3054   -9.8858 C   0  0  0  0  0  0  0  0  0  0  0  0
  1  2  3  0
  2  3  1  0
  3  4  2  0
  4  5  1  0
  5  6  1  0
  6  7  1  1
  5  8  2  0
  8  9  1  0
  9 10  2  0
 10 11  1  0
 11 12  1  0
 12 13  2  0
 13 14  1  0
 14 15  2  0
 15 16  1  0
 16 17  1  0
 16 18  2  0
 10  3  1  0
 18 12  1  0
M  END
$$$$
