_rank6
     RDKit          3D

 18 19  0  0  0  0  0  0  0  0999 V2000
   25.6393    1.0050  -13.6006 N   0  0  0  0  0  0  0  0  0  0  0  0
   25.7053    0.5479  -12.5572 C   0  0  0  0  0  0  0  0  0  0  0  0
   25.7756   -0.0096  -11.2382 C   0  0  0  0  0  0  0  0  0  0  0  0
   26.9233    0.1931  -10.4599 C   0  0  0  0  0  0  0  0  0  0  0  0
   26.9856   -0.3447   -9.1932 C   0  0  0  0  0  0  0  0  0  0  0  0
   28.1982   -0.1429   -8.3436 C   0  0  0  0  0  0  0  0  0  0  0  0
   29.1820   -1.1723   -8.6157 N   0  0  0  0  0  0  0  0  0  0  0  0
   25.9290   -1.0746   -8.6974 C   0  0  0  0  0  0  0  0  0  0  0  0
   24.8113   -1.2570   -9.4888 C   0  0  0  0  0  0  0  0  0  0  0  0
   24.7107   -0.7373  -10.7563 C   0  0  0  0  0  0  0  0  0  0  0  0
   23.6151   -0.9180  -11.5276 O   0  0  0  0  0  0  0  0  0  0  0  0
   22.3177   -1.0728  -11.1518 C   0  0  0  0  0  0  0  0  0  0  0  0
   21.4513   -2.0068  -11.6835 C   0  0  0  0  0  0  0  0  0  0  0  0
   20.1658   -2.0890  -11.2440 C   0  0  0  0  0  0  0  0  0  0  0  0
   19.6517   -1.2595  -10.2557 C   0  0  0  0  0  0  0  0  0  0  0  0
   20.5147   -0.3220   -9.7193 C   0  0  0  0  0  0  0  0  0  0  0  0
   20.0462    0.5038   -8.7529 F   0  0  0  0  0  0  0  0  0  0  0  0
   21.8161   -0.2410  -10.1663 C   0  0  0  0  0  0  0  0  0  0  0  0
  1  2  3  0
  2  3  1  0
  3  4  2  0
  4  5  1  0
  5  6  1  0
  6  7  1  1
  5  8  2  0
  8  9  1  0
  9 10  2  0
 10 11  1  0
 11 12  1  0
 12 13  2  0
 13 14  1  0
 14 15  2  0
 15 16  1  0
 16 17  1  0
 16 18  2  0
 10  3  1  0
 18 12  1  0
M  END
$$$$
