_rank16
     RDKit          3D

 18 19  0  0  0  0  0  0  0  0999 V2000
   23.3725    2.2883   -9.5463 N   0  0  0  0  0  0  0  0  0  0  0  0
   24.0871    1.4343   -9.7953 C   0  0  0  0  0  0  0  0  0  0  0  0
   24.9744    0.3481  -10.0930 C   0  0  0  0  0  0  0  0  0  0  0  0
   26.2573    0.3263   -9.5294 C   0  0  0  0  0  0  0  0  0  0  0  0
   27.1058   -0.7197   -9.8187 C   0  0  0  0  0  0  0  0  0  0  0  0
   28.4786   -0.7662   -9.2305 C   0  0  0  0  0  0  0  0  0  0  0  0
   28.4054   -0.8803   -7.7872 N   0  0  0  0  0  0  0  0  0  0  0  0
   26.6958   -1.7339  -10.6543 C   0  0  0  0  0  0  0  0  0  0  0  0
   25.4251   -1.6841  -11.1944 C   0  0  0  0  0  0  0  0  0  0  0  0
   24.5498   -0.6589  -10.9305 C   0  0  0  0  0  0  0  0  0  0  0  0
   23.3071   -0.6138  -11.4611 O   0  0  0  0  0  0  0  0  0  0  0  0
   22.1827   -1.2695  -11.0685 C   0  0  0  0  0  0  0  0  0  0  0  0
   21.7055   -1.3057   -9.7736 C   0  0  0  0  0  0  0  0  0  0  0  0
   20.5679   -1.9899   -9.4730 C   0  0  0  0  0  0  0  0  0  0  0  0
   19.8289   -2.6804  -10.4248 C   0  0  0  0  0  0  0  0  0  0  0  0
   20.3018   -2.6479  -11.7235 C   0  0  0  0  0  0  0  0  0  0  0  0
   19.6053   -3.3109  -12.6777 F   0  0  0  0  0  0  0  0  0  0  0  0
   21.4541   -1.9542  -12.0251 C   0  0  0  0  0  0  0  0  0  0  0  0
  1  2  3  0
  2  3  1  0
  3  4  2  0
  4  5  1  0
  5  6  1  0
  6  7  1  1
  5  8  2  0
  8  9  1  0
  9 10  2  0
 10 11  1  0
 11 12  1  0
 12 13  2  0
 13 14  1  0
 14 15  2  0
 15 16  1  0
 16 17  1  0
 16 18  2  0
 10  3  1  0
 18 12  1  0
M  END
$$$$
