_rank7
     RDKit          3D

 23 25  0  0  0  0  0  0  0  0999 V2000
   16.0697  -43.8628   10.2310 C   0  0  0  0  0  0  0  0  0  0  0  0
   16.7392  -42.6216    9.6946 C   0  0  0  0  0  0  0  0  0  0  0  0
   16.5667  -41.4692   10.5217 N   0  0  0  0  0  0  0  0  0  0  0  0
   17.7487  -40.8514   11.0843 C   0  0  0  0  0  0  0  0  0  0  0  0
   18.8929  -41.8247   11.2142 C   0  0  0  0  0  0  0  0  0  0  0  0
   15.3099  -40.8853   10.8306 C   0  0  0  0  0  0  0  0  0  0  0  0
   15.0808  -39.6789   10.6355 O   0  0  0  0  0  0  0  0  0  0  0  0
   14.2277  -41.6544   11.3872 N   0  0  0  0  0  0  0  0  0  0  0  0
   12.9687  -41.1027   11.7936 C   0  0  2  0  0  0  0  0  0  0  0  0
   12.8951  -40.8012   13.2718 C   0  0  0  0  0  0  0  0  0  0  0  0
   11.4185  -40.8357   13.5571 C   0  0  0  0  0  0  0  0  0  0  0  0
   10.8681  -41.5812   12.5498 N   0  0  0  0  0  0  0  0  0  0  0  0
    9.6779  -42.2661   12.6578 C   0  0  0  0  0  0  0  0  0  0  0  0
    8.8523  -42.0768   11.4169 C   0  0  0  0  0  0  0  0  0  0  0  0
    9.6594  -41.6712   10.2425 C   0  0  0  0  0  0  0  0  0  0  0  0
    8.9261  -41.3782    9.0907 C   0  0  0  0  0  0  0  0  0  0  0  0
    7.4482  -41.4602    9.0408 C   0  0  0  0  0  0  0  0  0  0  0  0
    9.5823  -40.9951    7.9449 C   0  0  0  0  0  0  0  0  0  0  0  0
   10.9364  -40.9097    7.9589 C   0  0  0  0  0  0  0  0  0  0  0  0
   11.6559  -41.1990    9.0954 C   0  0  0  0  0  0  0  0  0  0  0  0
   11.0452  -41.5793   10.2423 C   0  0  0  0  0  0  0  0  0  0  0  0
   11.7700  -41.9060   11.5084 C   0  0  1  0  0  0  0  0  0  0  0  0
   11.9834  -43.3963   11.5033 C   0  0  0  0  0  0  0  0  0  0  0  0
  1  2  1  6
  2  3  1  1
  4  3  1  1
  5  4  1  6
  3  6  1  0
  6  7  2  0
  6  8  1  0
  9  8  1  1
  9 10  1  0
 10 11  1  6
 11 12  1  1
 13 12  1  1
 13 14  1  0
 14 15  1  6
 15 16  2  0
 17 16  1  1
 16 18  1  0
 18 19  2  0
 19 20  1  0
 20 21  2  0
 22 21  1  6
 23 22  1  6
 22  9  1  0
 22 12  1  0
 21 15  1  0
M  END
$$$$
