_rank3
     RDKit          3D

 23 25  0  0  0  0  0  0  0  0999 V2000
   18.2756  -40.9846    9.8055 C   0  0  0  0  0  0  0  0  0  0  0  0
   16.9227  -40.4274   10.2521 C   0  0  0  0  0  0  0  0  0  0  0  0
   16.1138  -41.4154   10.8953 N   0  0  0  0  0  0  0  0  0  0  0  0
   16.7425  -42.4120   11.7175 C   0  0  0  0  0  0  0  0  0  0  0  0
   16.7892  -43.7666   11.0820 C   0  0  0  0  0  0  0  0  0  0  0  0
   14.7095  -41.4124   10.7242 C   0  0  0  0  0  0  0  0  0  0  0  0
   14.1884  -42.3070   10.0086 O   0  0  0  0  0  0  0  0  0  0  0  0
   13.8554  -40.4401   11.3261 N   0  0  0  0  0  0  0  0  0  0  0  0
   12.4876  -40.7570   11.7443 C   0  0  2  0  0  0  0  0  0  0  0  0
   12.5218  -41.4042   13.1348 C   0  0  0  0  0  0  0  0  0  0  0  0
   11.7551  -42.6810   13.0245 C   0  0  0  0  0  0  0  0  0  0  0  0
   11.4321  -42.8727   11.6532 N   0  0  0  0  0  0  0  0  0  0  0  0
   10.1522  -43.4443   11.4824 C   0  0  0  0  0  0  0  0  0  0  0  0
    9.7828  -43.5312    9.9941 C   0  0  0  0  0  0  0  0  0  0  0  0
    9.7716  -42.1074    9.5684 C   0  0  0  0  0  0  0  0  0  0  0  0
    8.7496  -41.6415    8.7247 C   0  0  0  0  0  0  0  0  0  0  0  0
    7.6868  -42.5249    8.2449 C   0  0  0  0  0  0  0  0  0  0  0  0
    8.7591  -40.3170    8.3460 C   0  0  0  0  0  0  0  0  0  0  0  0
    9.7640  -39.4643    8.7943 C   0  0  0  0  0  0  0  0  0  0  0  0
   10.7598  -39.9147    9.6152 C   0  0  0  0  0  0  0  0  0  0  0  0
   10.7633  -41.2677   10.0113 C   0  0  0  0  0  0  0  0  0  0  0  0
   11.8144  -41.7674   10.8723 C   0  0  1  0  0  0  0  0  0  0  0  0
   12.9229  -42.2801    9.9230 C   0  0  0  0  0  0  0  0  0  0  0  0
  1  2  1  6
  2  3  1  1
  4  3  1  1
  5  4  1  6
  3  6  1  0
  6  7  2  0
  6  8  1  0
  9  8  1  6
  9 10  1  0
 10 11  1  6
 11 12  1  1
 13 12  1  1
 13 14  1  0
 14 15  1  6
 15 16  2  0
 17 16  1  1
 16 18  1  0
 18 19  2  0
 19 20  1  0
 20 21  2  0
 22 21  1  6
 23 22  1  6
 22  9  1  0
 22 12  1  0
 21 15  1  0
M  END
$$$$
