_rank3
     RDKit          3D

 23 25  0  0  0  0  0  0  0  0999 V2000
   18.0276  -39.5941   10.2710 C   0  0  0  0  0  0  0  0  0  0  0  0
   18.0713  -41.1003   10.1940 C   0  0  0  0  0  0  0  0  0  0  0  0
   16.8029  -41.7259   10.3981 N   0  0  0  0  0  0  0  0  0  0  0  0
   16.7494  -43.1725   10.4010 C   0  0  0  0  0  0  0  0  0  0  0  0
   17.0792  -43.7517   11.7535 C   0  0  0  0  0  0  0  0  0  0  0  0
   15.5859  -41.0230   10.6000 C   0  0  0  0  0  0  0  0  0  0  0  0
   15.5458  -39.7814   10.6529 O   0  0  0  0  0  0  0  0  0  0  0  0
   14.3277  -41.7053   10.7550 N   0  0  0  0  0  0  0  0  0  0  0  0
   13.1599  -41.1235   11.3486 C   0  0  2  0  0  0  0  0  0  0  0  0
   13.2836  -40.9190   12.8401 C   0  0  0  0  0  0  0  0  0  0  0  0
   11.8532  -40.9030   13.3051 C   0  0  0  0  0  0  0  0  0  0  0  0
   11.1440  -41.5524   12.3311 N   0  0  0  0  0  0  0  0  0  0  0  0
    9.9399  -42.1861   12.5452 C   0  0  0  0  0  0  0  0  0  0  0  0
    8.9810  -41.8751   11.4313 C   0  0  0  0  0  0  0  0  0  0  0  0
    9.6600  -41.4298   10.1920 C   0  0  0  0  0  0  0  0  0  0  0  0
    8.8091  -41.0258    9.1610 C   0  0  0  0  0  0  0  0  0  0  0  0
    7.3339  -41.0346    9.2916 C   0  0  0  0  0  0  0  0  0  0  0  0
    9.3410  -40.5979    7.9677 C   0  0  0  0  0  0  0  0  0  0  0  0
   10.6893  -40.5775    7.8173 C   0  0  0  0  0  0  0  0  0  0  0  0
   11.5249  -40.9762    8.8351 C   0  0  0  0  0  0  0  0  0  0  0  0
   11.0385  -41.4035   10.0240 C   0  0  0  0  0  0  0  0  0  0  0  0
   11.8930  -41.8484   11.1673 C   0  0  1  0  0  0  0  0  0  0  0  0
   12.0218  -43.3435   11.0447 C   0  0  0  0  0  0  0  0  0  0  0  0
  1  2  1  6
  2  3  1  1
  4  3  1  1
  5  4  1  6
  3  6  1  0
  6  7  2  0
  6  8  1  0
  9  8  1  1
  9 10  1  0
 10 11  1  6
 11 12  1  1
 13 12  1  1
 13 14  1  0
 14 15  1  6
 15 16  2  0
 17 16  1  1
 16 18  1  0
 18 19  2  0
 19 20  1  0
 20 21  2  0
 22 21  1  6
 23 22  1  6
 22  9  1  0
 22 12  1  0
 21 15  1  0
M  END
$$$$
