_rank16
     RDKit          3D

 23 25  0  0  0  0  0  0  0  0999 V2000
   13.4118  -26.9107   35.1475 C   0  0  0  0  0  0  0  0  0  0  0  0
   13.6437  -27.5557   36.4917 C   0  0  0  0  0  0  0  0  0  0  0  0
   13.0163  -28.8314   36.6359 N   0  0  0  0  0  0  0  0  0  0  0  0
   12.8509  -29.3620   37.9725 C   0  0  0  0  0  0  0  0  0  0  0  0
   14.1697  -29.5412   38.6812 C   0  0  0  0  0  0  0  0  0  0  0  0
   12.5410  -29.6177   35.5534 C   0  0  0  0  0  0  0  0  0  0  0  0
   12.4670  -29.1666   34.3971 O   0  0  0  0  0  0  0  0  0  0  0  0
   12.1172  -30.9821   35.7302 N   0  0  0  0  0  0  0  0  0  0  0  0
   11.3094  -31.7060   34.7932 C   0  0  2  0  0  0  0  0  0  0  0  0
   10.2262  -30.8651   34.1598 C   0  0  0  0  0  0  0  0  0  0  0  0
    9.1995  -31.8827   33.7437 C   0  0  0  0  0  0  0  0  0  0  0  0
    9.4341  -32.9809   34.5261 N   0  0  0  0  0  0  0  0  0  0  0  0
    8.4816  -33.9266   34.8352 C   0  0  0  0  0  0  0  0  0  0  0  0
    9.0610  -35.3081   34.7203 C   0  0  0  0  0  0  0  0  0  0  0  0
   10.5396  -35.3237   34.8126 C   0  0  0  0  0  0  0  0  0  0  0  0
   11.1344  -36.5700   34.6044 C   0  0  0  0  0  0  0  0  0  0  0  0
   10.3504  -37.7909   34.3077 C   0  0  0  0  0  0  0  0  0  0  0  0
   12.5021  -36.6914   34.6722 C   0  0  0  0  0  0  0  0  0  0  0  0
   13.2484  -35.5907   34.9415 C   0  0  0  0  0  0  0  0  0  0  0  0
   12.6593  -34.3642   35.1460 C   0  0  0  0  0  0  0  0  0  0  0  0
   11.3161  -34.2054   35.0872 C   0  0  0  0  0  0  0  0  0  0  0  0
   10.6170  -32.9010   35.2993 C   0  0  1  0  0  0  0  0  0  0  0  0
   10.2383  -32.8538   36.7557 C   0  0  0  0  0  0  0  0  0  0  0  0
  1  2  1  6
  2  3  1  1
  4  3  1  1
  5  4  1  6
  3  6  1  0
  6  7  2  0
  6  8  1  0
  9  8  1  1
  9 10  1  0
 10 11  1  6
 11 12  1  1
 13 12  1  1
 13 14  1  0
 14 15  1  6
 15 16  2  0
 17 16  1  1
 16 18  1  0
 18 19  2  0
 19 20  1  0
 20 21  2  0
 22 21  1  1
 23 22  1  6
 22  9  1  0
 22 12  1  0
 21 15  1  0
M  END
$$$$
