_rank5
     RDKit          3D

 23 25  0  0  0  0  0  0  0  0999 V2000
   16.3242  -43.6672   11.5099 C   0  0  0  0  0  0  0  0  0  0  0  0
   17.3681  -42.8915   10.7450 C   0  0  0  0  0  0  0  0  0  0  0  0
   16.9886  -41.5452   10.4533 N   0  0  0  0  0  0  0  0  0  0  0  0
   17.9409  -40.7039    9.7600 C   0  0  0  0  0  0  0  0  0  0  0  0
   17.2841  -39.8498    8.7053 C   0  0  0  0  0  0  0  0  0  0  0  0
   15.7354  -40.9733   10.7975 C   0  0  0  0  0  0  0  0  0  0  0  0
   15.6316  -39.7879   11.1581 O   0  0  0  0  0  0  0  0  0  0  0  0
   14.5123  -41.7310   10.7496 N   0  0  0  0  0  0  0  0  0  0  0  0
   13.2894  -41.3338   11.3832 C   0  0  2  0  0  0  0  0  0  0  0  0
   13.3504  -41.3875   12.8915 C   0  0  0  0  0  0  0  0  0  0  0  0
   11.9077  -41.5395   13.2891 C   0  0  0  0  0  0  0  0  0  0  0  0
   11.2756  -42.0490   12.1872 N   0  0  0  0  0  0  0  0  0  0  0  0
   10.1103  -42.7818   12.2353 C   0  0  0  0  0  0  0  0  0  0  0  0
    9.1696  -42.3381   11.1511 C   0  0  0  0  0  0  0  0  0  0  0  0
    9.8575  -41.6421   10.0386 C   0  0  0  0  0  0  0  0  0  0  0  0
    9.0156  -41.1151    9.0569 C   0  0  0  0  0  0  0  0  0  0  0  0
    7.5408  -41.2354    9.1192 C   0  0  0  0  0  0  0  0  0  0  0  0
    9.5564  -40.4530    7.9802 C   0  0  0  0  0  0  0  0  0  0  0  0
   10.9045  -40.3255    7.8949 C   0  0  0  0  0  0  0  0  0  0  0  0
   11.7312  -40.8458    8.8639 C   0  0  0  0  0  0  0  0  0  0  0  0
   11.2358  -41.5038    9.9384 C   0  0  0  0  0  0  0  0  0  0  0  0
   12.0804  -42.0905   11.0236 C   0  0  1  0  0  0  0  0  0  0  0  0
   12.3128  -43.5302   10.6497 C   0  0  0  0  0  0  0  0  0  0  0  0
  1  2  1  6
  2  3  1  1
  4  3  1  1
  5  4  1  6
  3  6  1  0
  6  7  2  0
  6  8  1  0
  9  8  1  6
  9 10  1  0
 10 11  1  6
 11 12  1  1
 13 12  1  1
 13 14  1  0
 14 15  1  6
 15 16  2  0
 17 16  1  1
 16 18  1  0
 18 19  2  0
 19 20  1  0
 20 21  2  0
 22 21  1  6
 23 22  1  6
 22  9  1  0
 22 12  1  0
 21 15  1  0
M  END
$$$$
