_rank8
     RDKit          3D

 23 25  0  0  0  0  0  0  0  0999 V2000
   18.1708  -41.2064    9.3281 C   0  0  0  0  0  0  0  0  0  0  0  0
   17.8580  -41.0937   10.8213 C   0  0  0  0  0  0  0  0  0  0  0  0
   16.7868  -41.9534   11.2183 N   0  0  0  0  0  0  0  0  0  0  0  0
   16.9161  -43.3716   11.0276 C   0  0  0  0  0  0  0  0  0  0  0  0
   16.1964  -43.8785    9.8168 C   0  0  0  0  0  0  0  0  0  0  0  0
   15.6118  -41.4139   11.7927 C   0  0  0  0  0  0  0  0  0  0  0  0
   15.6380  -40.2288   12.2157 O   0  0  0  0  0  0  0  0  0  0  0  0
   14.3968  -42.1527   11.9152 N   0  0  0  0  0  0  0  0  0  0  0  0
   13.1022  -41.4958   12.1117 C   0  0  2  0  0  0  0  0  0  0  0  0
   12.8201  -41.3753   13.6149 C   0  0  0  0  0  0  0  0  0  0  0  0
   11.4671  -41.9666   13.8387 C   0  0  0  0  0  0  0  0  0  0  0  0
   11.0416  -42.5459   12.6120 N   0  0  0  0  0  0  0  0  0  0  0  0
    9.6557  -42.3813   12.3977 C   0  0  0  0  0  0  0  0  0  0  0  0
    9.2460  -42.9114   11.0155 C   0  0  0  0  0  0  0  0  0  0  0  0
   10.0171  -42.0475   10.0839 C   0  0  0  0  0  0  0  0  0  0  0  0
    9.3998  -41.5507    8.9239 C   0  0  0  0  0  0  0  0  0  0  0  0
    8.0079  -41.8633    8.6001 C   0  0  0  0  0  0  0  0  0  0  0  0
   10.1342  -40.7498    8.0772 C   0  0  0  0  0  0  0  0  0  0  0  0
   11.4599  -40.4437    8.3718 C   0  0  0  0  0  0  0  0  0  0  0  0
   12.0632  -40.9258    9.4996 C   0  0  0  0  0  0  0  0  0  0  0  0
   11.3243  -41.7466   10.3758 C   0  0  0  0  0  0  0  0  0  0  0  0
   11.9474  -42.2756   11.5706 C   0  0  1  0  0  0  0  0  0  0  0  0
   12.5437  -43.6426   11.1599 C   0  0  0  0  0  0  0  0  0  0  0  0
  1  2  1  6
  2  3  1  1
  4  3  1  1
  5  4  1  6
  3  6  1  0
  6  7  2  0
  6  8  1  0
  9  8  1  1
  9 10  1  0
 10 11  1  6
 11 12  1  1
 13 12  1  1
 13 14  1  0
 14 15  1  6
 15 16  2  0
 17 16  1  1
 16 18  1  0
 18 19  2  0
 19 20  1  0
 20 21  2  0
 22 21  1  6
 23 22  1  6
 22  9  1  0
 22 12  1  0
 21 15  1  0
M  END
$$$$
