_rank12
     RDKit          3D

 23 25  0  0  0  0  0  0  0  0999 V2000
   16.1648  -42.7021    8.4873 C   0  0  0  0  0  0  0  0  0  0  0  0
   17.3992  -42.1675    9.1706 C   0  0  0  0  0  0  0  0  0  0  0  0
   17.1657  -40.9906    9.9466 N   0  0  0  0  0  0  0  0  0  0  0  0
   18.1861  -39.9639    9.9509 C   0  0  0  0  0  0  0  0  0  0  0  0
   19.5247  -40.4896    9.4980 C   0  0  0  0  0  0  0  0  0  0  0  0
   15.9959  -40.7575   10.7168 C   0  0  0  0  0  0  0  0  0  0  0  0
   15.9222  -39.8213   11.5317 O   0  0  0  0  0  0  0  0  0  0  0  0
   14.8274  -41.5902   10.6001 N   0  0  0  0  0  0  0  0  0  0  0  0
   13.6743  -41.4888   11.4454 C   0  0  2  0  0  0  0  0  0  0  0  0
   13.9699  -41.7703   12.8997 C   0  0  0  0  0  0  0  0  0  0  0  0
   12.6358  -42.2008   13.4451 C   0  0  0  0  0  0  0  0  0  0  0  0
   11.9144  -42.6199   12.3601 N   0  0  0  0  0  0  0  0  0  0  0  0
   10.8735  -43.5196   12.4257 C   0  0  0  0  0  0  0  0  0  0  0  0
    9.7300  -43.0584   11.5671 C   0  0  0  0  0  0  0  0  0  0  0  0
   10.1461  -42.0989   10.5177 C   0  0  0  0  0  0  0  0  0  0  0  0
    9.1044  -41.5576    9.7613 C   0  0  0  0  0  0  0  0  0  0  0  0
    7.6839  -41.9090    9.9893 C   0  0  0  0  0  0  0  0  0  0  0  0
    9.3861  -40.6591    8.7595 C   0  0  0  0  0  0  0  0  0  0  0  0
   10.6780  -40.3162    8.5265 C   0  0  0  0  0  0  0  0  0  0  0  0
   11.7020  -40.8513    9.2736 C   0  0  0  0  0  0  0  0  0  0  0  0
   11.4640  -41.7385   10.2682 C   0  0  0  0  0  0  0  0  0  0  0  0
   12.5317  -42.3540   11.1145 C   0  0  1  0  0  0  0  0  0  0  0  0
   12.8872  -43.6643   10.4637 C   0  0  0  0  0  0  0  0  0  0  0  0
  1  2  1  6
  2  3  1  1
  4  3  1  1
  5  4  1  6
  3  6  1  0
  6  7  2  0
  6  8  1  0
  9  8  1  6
  9 10  1  0
 10 11  1  6
 11 12  1  1
 13 12  1  1
 13 14  1  0
 14 15  1  6
 15 16  2  0
 17 16  1  1
 16 18  1  0
 18 19  2  0
 19 20  1  0
 20 21  2  0
 22 21  1  6
 23 22  1  6
 22  9  1  0
 22 12  1  0
 21 15  1  0
M  END
$$$$
