_rank20
     RDKit          3D

 23 25  0  0  0  0  0  0  0  0999 V2000
   11.9957  -39.6320   28.9075 C   0  0  0  0  0  0  0  0  0  0  0  0
   12.2595  -39.3055   27.4583 C   0  0  0  0  0  0  0  0  0  0  0  0
   11.3042  -39.8677   26.5565 N   0  0  0  0  0  0  0  0  0  0  0  0
   11.0860  -39.1992   25.2913 C   0  0  0  0  0  0  0  0  0  0  0  0
    9.7400  -39.5294   24.6975 C   0  0  0  0  0  0  0  0  0  0  0  0
   10.5511  -41.0429   26.8171 C   0  0  0  0  0  0  0  0  0  0  0  0
   10.1627  -41.3333   27.9619 O   0  0  0  0  0  0  0  0  0  0  0  0
   10.1932  -41.9666   25.7726 N   0  0  0  0  0  0  0  0  0  0  0  0
   10.2362  -43.3933   25.9047 C   0  0  2  0  0  0  0  0  0  0  0  0
   11.5651  -43.9925   25.5090 C   0  0  0  0  0  0  0  0  0  0  0  0
   11.2096  -45.4079   25.1445 C   0  0  0  0  0  0  0  0  0  0  0  0
    9.8730  -45.3860   24.8509 N   0  0  0  0  0  0  0  0  0  0  0  0
    9.2479  -46.2972   24.0286 C   0  0  0  0  0  0  0  0  0  0  0  0
    7.9397  -46.7295   24.6277 C   0  0  0  0  0  0  0  0  0  0  0  0
    7.4113  -45.7637   25.6193 C   0  0  0  0  0  0  0  0  0  0  0  0
    6.2521  -46.1695   26.2840 C   0  0  0  0  0  0  0  0  0  0  0  0
    5.5957  -47.4716   26.0251 C   0  0  0  0  0  0  0  0  0  0  0  0
    5.6802  -45.3425   27.2216 C   0  0  0  0  0  0  0  0  0  0  0  0
    6.2584  -44.1430   27.4819 C   0  0  0  0  0  0  0  0  0  0  0  0
    7.4006  -43.7462   26.8253 C   0  0  0  0  0  0  0  0  0  0  0  0
    7.9925  -44.5330   25.8961 C   0  0  0  0  0  0  0  0  0  0  0  0
    9.2329  -44.1594   25.1498 C   0  0  1  0  0  0  0  0  0  0  0  0
    8.7792  -43.5264   23.8614 C   0  0  0  0  0  0  0  0  0  0  0  0
  1  2  1  6
  2  3  1  1
  4  3  1  1
  5  4  1  6
  3  6  1  0
  6  7  2  0
  6  8  1  0
  9  8  1  6
  9 10  1  0
 10 11  1  6
 11 12  1  1
 13 12  1  1
 13 14  1  0
 14 15  1  6
 15 16  2  0
 17 16  1  1
 16 18  1  0
 18 19  2  0
 19 20  1  0
 20 21  2  0
 22 21  1  1
 23 22  1  6
 22  9  1  0
 22 12  1  0
 21 15  1  0
M  END
$$$$
