_rank19
     RDKit          3D

 23 25  0  0  0  0  0  0  0  0999 V2000
   16.7861  -40.4247   14.5348 C   0  0  0  0  0  0  0  0  0  0  0  0
   17.3812  -40.3965   13.1486 C   0  0  0  0  0  0  0  0  0  0  0  0
   17.5539  -41.6907   12.5679 N   0  0  0  0  0  0  0  0  0  0  0  0
   18.8130  -42.3716   12.7835 C   0  0  0  0  0  0  0  0  0  0  0  0
   19.8400  -41.4779   13.4315 C   0  0  0  0  0  0  0  0  0  0  0  0
   16.5706  -42.3582   11.7911 C   0  0  0  0  0  0  0  0  0  0  0  0
   16.4206  -43.5914   11.8408 O   0  0  0  0  0  0  0  0  0  0  0  0
   15.6901  -41.6476   10.9010 N   0  0  0  0  0  0  0  0  0  0  0  0
   14.7481  -42.2765   10.0226 C   0  0  2  0  0  0  0  0  0  0  0  0
   15.3921  -42.9402    8.8283 C   0  0  0  0  0  0  0  0  0  0  0  0
   14.2836  -42.9701    7.8118 C   0  0  0  0  0  0  0  0  0  0  0  0
   13.4072  -41.9917    8.1966 N   0  0  0  0  0  0  0  0  0  0  0  0
   12.5419  -41.3492    7.3388 C   0  0  0  0  0  0  0  0  0  0  0  0
   11.1851  -41.2150    7.9699 C   0  0  0  0  0  0  0  0  0  0  0  0
   11.2227  -41.3164    9.4475 C   0  0  0  0  0  0  0  0  0  0  0  0
    9.9753  -41.3056   10.0754 C   0  0  0  0  0  0  0  0  0  0  0  0
    8.7027  -41.2051    9.3246 C   0  0  0  0  0  0  0  0  0  0  0  0
    9.9021  -41.3915   11.4456 C   0  0  0  0  0  0  0  0  0  0  0  0
   11.0507  -41.4855   12.1618 C   0  0  0  0  0  0  0  0  0  0  0  0
   12.2781  -41.4960   11.5401 C   0  0  0  0  0  0  0  0  0  0  0  0
   12.3902  -41.4134   10.1934 C   0  0  0  0  0  0  0  0  0  0  0  0
   13.6928  -41.4203    9.4596 C   0  0  1  0  0  0  0  0  0  0  0  0
   14.0759  -39.9780    9.2604 C   0  0  0  0  0  0  0  0  0  0  0  0
  1  2  1  6
  2  3  1  1
  4  3  1  1
  5  4  1  6
  3  6  1  0
  6  7  2  0
  6  8  1  0
  9  8  1  6
  9 10  1  0
 10 11  1  6
 11 12  1  1
 13 12  1  1
 13 14  1  0
 14 15  1  6
 15 16  2  0
 17 16  1  1
 16 18  1  0
 18 19  2  0
 19 20  1  0
 20 21  2  0
 22 21  1  1
 23 22  1  6
 22  9  1  0
 22 12  1  0
 21 15  1  0
M  END
$$$$
