_rank6
     RDKit          3D

 23 25  0  0  0  0  0  0  0  0999 V2000
   18.8913  -41.7122   10.4026 C   0  0  0  0  0  0  0  0  0  0  0  0
   17.7169  -40.8391   10.7698 C   0  0  0  0  0  0  0  0  0  0  0  0
   16.5037  -41.5632   10.9836 N   0  0  0  0  0  0  0  0  0  0  0  0
   16.5965  -42.9060   11.5163 C   0  0  0  0  0  0  0  0  0  0  0  0
   16.7577  -43.9394   10.4303 C   0  0  0  0  0  0  0  0  0  0  0  0
   15.2072  -41.0536   10.7089 C   0  0  0  0  0  0  0  0  0  0  0  0
   15.0338  -40.0511    9.9941 O   0  0  0  0  0  0  0  0  0  0  0  0
   14.0182  -41.6665   11.2408 N   0  0  0  0  0  0  0  0  0  0  0  0
   12.8168  -40.9549   11.5646 C   0  0  2  0  0  0  0  0  0  0  0  0
   12.8213  -40.3735   12.9587 C   0  0  0  0  0  0  0  0  0  0  0  0
   11.3580  -40.2423   13.2816 C   0  0  0  0  0  0  0  0  0  0  0  0
   10.7190  -41.1221   12.4503 N   0  0  0  0  0  0  0  0  0  0  0  0
    9.4895  -41.6828   12.7173 C   0  0  0  0  0  0  0  0  0  0  0  0
    8.6317  -41.6712   11.4839 C   0  0  0  0  0  0  0  0  0  0  0  0
    9.4188  -41.5577   10.2338 C   0  0  0  0  0  0  0  0  0  0  0  0
    8.6636  -41.4347    9.0657 C   0  0  0  0  0  0  0  0  0  0  0  0
    7.1827  -41.4136    9.0690 C   0  0  0  0  0  0  0  0  0  0  0  0
    9.2999  -41.3265    7.8518 C   0  0  0  0  0  0  0  0  0  0  0  0
   10.6562  -41.3418    7.8157 C   0  0  0  0  0  0  0  0  0  0  0  0
   11.3974  -41.4632    8.9685 C   0  0  0  0  0  0  0  0  0  0  0  0
   10.8066  -41.5718   10.1818 C   0  0  0  0  0  0  0  0  0  0  0  0
   11.5555  -41.7055   11.4688 C   0  0  1  0  0  0  0  0  0  0  0  0
   11.6654  -43.1814   11.7451 C   0  0  0  0  0  0  0  0  0  0  0  0
  1  2  1  6
  2  3  1  1
  4  3  1  1
  5  4  1  6
  3  6  1  0
  6  7  2  0
  6  8  1  0
  9  8  1  1
  9 10  1  0
 10 11  1  6
 11 12  1  1
 13 12  1  1
 13 14  1  0
 14 15  1  6
 15 16  2  0
 17 16  1  1
 16 18  1  0
 18 19  2  0
 19 20  1  0
 20 21  2  0
 22 21  1  6
 23 22  1  6
 22  9  1  0
 22 12  1  0
 21 15  1  0
M  END
$$$$
