_rank2
     RDKit          3D

 23 25  0  0  0  0  0  0  0  0999 V2000
   17.0275  -40.6184    8.6192 C   0  0  0  0  0  0  0  0  0  0  0  0
   16.9477  -40.4309   10.1353 C   0  0  0  0  0  0  0  0  0  0  0  0
   15.8890  -41.1920   10.7219 N   0  0  0  0  0  0  0  0  0  0  0  0
   15.4596  -42.4061   10.0847 C   0  0  0  0  0  0  0  0  0  0  0  0
   16.2560  -43.6067   10.4909 C   0  0  0  0  0  0  0  0  0  0  0  0
   15.2704  -40.7547   11.9167 C   0  0  0  0  0  0  0  0  0  0  0  0
   15.8765  -39.9200   12.6377 O   0  0  0  0  0  0  0  0  0  0  0  0
   13.9892  -41.2175   12.3429 N   0  0  0  0  0  0  0  0  0  0  0  0
   12.7582  -40.4777   12.0544 C   0  0  2  0  0  0  0  0  0  0  0  0
   12.4287  -39.5632   13.2413 C   0  0  0  0  0  0  0  0  0  0  0  0
   11.0164  -39.8618   13.6242 C   0  0  0  0  0  0  0  0  0  0  0  0
   10.5863  -40.9748   12.8510 N   0  0  0  0  0  0  0  0  0  0  0  0
    9.2329  -40.8632   12.4640 C   0  0  0  0  0  0  0  0  0  0  0  0
    8.8296  -42.0176   11.5346 C   0  0  0  0  0  0  0  0  0  0  0  0
    9.7185  -41.8268   10.3590 C   0  0  0  0  0  0  0  0  0  0  0  0
    9.2002  -41.9818    9.0625 C   0  0  0  0  0  0  0  0  0  0  0  0
    7.7986  -42.3317    8.8320 C   0  0  0  0  0  0  0  0  0  0  0  0
   10.0431  -41.7971    7.9886 C   0  0  0  0  0  0  0  0  0  0  0  0
   11.3793  -41.4640    8.1921 C   0  0  0  0  0  0  0  0  0  0  0  0
   11.8865  -41.3127    9.4524 C   0  0  0  0  0  0  0  0  0  0  0  0
   11.0360  -41.4984   10.5613 C   0  0  0  0  0  0  0  0  0  0  0  0
   11.5555  -41.3527   11.9047 C   0  0  1  0  0  0  0  0  0  0  0  0
   12.0314  -42.7637   12.3233 C   0  0  0  0  0  0  0  0  0  0  0  0
  1  2  1  6
  2  3  1  1
  4  3  1  1
  5  4  1  6
  3  6  1  0
  6  7  2  0
  6  8  1  0
  9  8  1  1
  9 10  1  0
 10 11  1  6
 11 12  1  1
 13 12  1  1
 13 14  1  0
 14 15  1  6
 15 16  2  0
 17 16  1  1
 16 18  1  0
 18 19  2  0
 19 20  1  0
 20 21  2  0
 22 21  1  6
 23 22  1  6
 22  9  1  0
 22 12  1  0
 21 15  1  0
M  END
$$$$
