_rank15
     RDKit          3D

 23 25  0  0  0  0  0  0  0  0999 V2000
   19.9119  -44.1630   10.8504 C   0  0  0  0  0  0  0  0  0  0  0  0
   18.5441  -44.3559   10.1931 C   0  0  0  0  0  0  0  0  0  0  0  0
   17.5287  -43.5589   10.8078 N   0  0  0  0  0  0  0  0  0  0  0  0
   17.5683  -43.3427   12.2276 C   0  0  0  0  0  0  0  0  0  0  0  0
   18.6535  -44.1090   12.9176 C   0  0  0  0  0  0  0  0  0  0  0  0
   16.4957  -42.9892   10.0268 C   0  0  0  0  0  0  0  0  0  0  0  0
   16.4587  -43.2490    8.7959 O   0  0  0  0  0  0  0  0  0  0  0  0
   15.4927  -42.1319   10.5711 N   0  0  0  0  0  0  0  0  0  0  0  0
   14.7095  -41.2199    9.7339 C   0  0  2  0  0  0  0  0  0  0  0  0
   15.4802  -39.9046    9.5621 C   0  0  0  0  0  0  0  0  0  0  0  0
   14.5404  -38.8113    9.9515 C   0  0  0  0  0  0  0  0  0  0  0  0
   13.3656  -39.4184   10.4739 N   0  0  0  0  0  0  0  0  0  0  0  0
   12.1965  -38.7130   10.1141 C   0  0  0  0  0  0  0  0  0  0  0  0
   10.9384  -39.4537   10.5913 C   0  0  0  0  0  0  0  0  0  0  0  0
   11.0092  -40.7424    9.8545 C   0  0  0  0  0  0  0  0  0  0  0  0
    9.8446  -41.2823    9.2838 C   0  0  0  0  0  0  0  0  0  0  0  0
    8.5506  -40.6095    9.3964 C   0  0  0  0  0  0  0  0  0  0  0  0
    9.9360  -42.4766    8.6032 C   0  0  0  0  0  0  0  0  0  0  0  0
   11.1605  -43.1288    8.4879 C   0  0  0  0  0  0  0  0  0  0  0  0
   12.2953  -42.6059    9.0422 C   0  0  0  0  0  0  0  0  0  0  0  0
   12.2174  -41.3843    9.7415 C   0  0  0  0  0  0  0  0  0  0  0  0
   13.4056  -40.8182   10.3446 C   0  0  1  0  0  0  0  0  0  0  0  0
   13.4486  -41.3775   11.7863 C   0  0  0  0  0  0  0  0  0  0  0  0
  1  2  1  6
  2  3  1  1
  4  3  1  1
  5  4  1  6
  3  6  1  0
  6  7  2  0
  6  8  1  0
  9  8  1  1
  9 10  1  0
 10 11  1  6
 11 12  1  1
 13 12  1  1
 13 14  1  0
 14 15  1  6
 15 16  2  0
 17 16  1  1
 16 18  1  0
 18 19  2  0
 19 20  1  0
 20 21  2  0
 22 21  1  6
 23 22  1  6
 22  9  1  0
 22 12  1  0
 21 15  1  0
M  END
$$$$
