_rank13
     RDKit          3D

 23 25  0  0  0  0  0  0  0  0999 V2000
    9.1084  -40.2605    8.1328 C   0  0  0  0  0  0  0  0  0  0  0  0
    8.5669  -41.3593    9.0136 C   0  0  0  0  0  0  0  0  0  0  0  0
    9.4794  -41.7911   10.0250 N   0  0  0  0  0  0  0  0  0  0  0  0
    8.9740  -41.9613   11.3708 C   0  0  0  0  0  0  0  0  0  0  0  0
    8.6665  -40.6429   12.0345 C   0  0  0  0  0  0  0  0  0  0  0  0
   10.8539  -42.0667    9.7996 C   0  0  0  0  0  0  0  0  0  0  0  0
   11.2428  -42.6868    8.7945 O   0  0  0  0  0  0  0  0  0  0  0  0
   11.8773  -41.6451   10.7200 N   0  0  0  0  0  0  0  0  0  0  0  0
   13.1163  -42.3363   10.9241 C   0  0  2  0  0  0  0  0  0  0  0  0
   12.9959  -43.5221   11.8518 C   0  0  0  0  0  0  0  0  0  0  0  0
   14.3943  -43.6890   12.3804 C   0  0  0  0  0  0  0  0  0  0  0  0
   14.9980  -42.4725   12.2102 N   0  0  0  0  0  0  0  0  0  0  0  0
   16.0626  -42.0268   12.9619 C   0  0  0  0  0  0  0  0  0  0  0  0
   17.0882  -41.3743   12.0789 C   0  0  0  0  0  0  0  0  0  0  0  0
   16.5303  -40.9200   10.7838 C   0  0  0  0  0  0  0  0  0  0  0  0
   17.4644  -40.4036    9.8833 C   0  0  0  0  0  0  0  0  0  0  0  0
   18.9103  -40.3177   10.1919 C   0  0  0  0  0  0  0  0  0  0  0  0
   17.0470  -39.9515    8.6539 C   0  0  0  0  0  0  0  0  0  0  0  0
   15.7284  -40.0175    8.3409 C   0  0  0  0  0  0  0  0  0  0  0  0
   14.8106  -40.5269    9.2304 C   0  0  0  0  0  0  0  0  0  0  0  0
   15.1836  -40.9816   10.4498 C   0  0  0  0  0  0  0  0  0  0  0  0
   14.2358  -41.5462   11.4589 C   0  0  1  0  0  0  0  0  0  0  0  0
   13.8426  -40.4044   12.3580 C   0  0  0  0  0  0  0  0  0  0  0  0
  1  2  1  6
  2  3  1  1
  4  3  1  1
  5  4  1  6
  3  6  1  0
  6  7  2  0
  6  8  1  0
  9  8  1  1
  9 10  1  0
 10 11  1  6
 11 12  1  1
 13 12  1  1
 13 14  1  0
 14 15  1  6
 15 16  2  0
 17 16  1  1
 16 18  1  0
 18 19  2  0
 19 20  1  0
 20 21  2  0
 22 21  1  6
 23 22  1  6
 22  9  1  0
 22 12  1  0
 21 15  1  0
M  END
$$$$
