_rank10
     RDKit          3D

 23 25  0  0  0  0  0  0  0  0999 V2000
   18.2377  -40.2700    8.2159 C   0  0  0  0  0  0  0  0  0  0  0  0
   17.9003  -40.3340    9.6851 C   0  0  0  0  0  0  0  0  0  0  0  0
   16.8183  -41.2157    9.9912 N   0  0  0  0  0  0  0  0  0  0  0  0
   16.9481  -42.6085    9.6186 C   0  0  0  0  0  0  0  0  0  0  0  0
   17.6190  -43.4254   10.6937 C   0  0  0  0  0  0  0  0  0  0  0  0
   15.6192  -40.8180   10.6393 C   0  0  0  0  0  0  0  0  0  0  0  0
   15.4171  -39.6396   10.9804 O   0  0  0  0  0  0  0  0  0  0  0  0
   14.5678  -41.7544   10.9396 N   0  0  0  0  0  0  0  0  0  0  0  0
   13.3363  -41.4077   11.5860 C   0  0  2  0  0  0  0  0  0  0  0  0
   13.4271  -41.4162   13.0937 C   0  0  0  0  0  0  0  0  0  0  0  0
   12.0024  -41.6363   13.5232 C   0  0  0  0  0  0  0  0  0  0  0  0
   11.3801  -42.2102   12.4477 N   0  0  0  0  0  0  0  0  0  0  0  0
   10.2583  -43.0044   12.5379 C   0  0  0  0  0  0  0  0  0  0  0  0
    9.2752  -42.6434   11.4607 C   0  0  0  0  0  0  0  0  0  0  0  0
    9.9033  -41.9416   10.3170 C   0  0  0  0  0  0  0  0  0  0  0  0
    9.0160  -41.4892    9.3381 C   0  0  0  0  0  0  0  0  0  0  0  0
    7.5516  -41.6887    9.4322 C   0  0  0  0  0  0  0  0  0  0  0  0
    9.4998  -40.8284    8.2339 C   0  0  0  0  0  0  0  0  0  0  0  0
   10.8370  -40.6292    8.1190 C   0  0  0  0  0  0  0  0  0  0  0  0
   11.7086  -41.0762    9.0854 C   0  0  0  0  0  0  0  0  0  0  0  0
   11.2698  -41.7305   10.1864 C   0  0  0  0  0  0  0  0  0  0  0  0
   12.1650  -42.2395   11.2703 C   0  0  1  0  0  0  0  0  0  0  0  0
   12.4703  -43.6741   10.9304 C   0  0  0  0  0  0  0  0  0  0  0  0
  1  2  1  6
  2  3  1  1
  4  3  1  1
  5  4  1  6
  3  6  1  0
  6  7  2  0
  6  8  1  0
  9  8  1  6
  9 10  1  0
 10 11  1  6
 11 12  1  1
 13 12  1  1
 13 14  1  0
 14 15  1  6
 15 16  2  0
 17 16  1  1
 16 18  1  0
 18 19  2  0
 19 20  1  0
 20 21  2  0
 22 21  1  6
 23 22  1  6
 22  9  1  0
 22 12  1  0
 21 15  1  0
M  END
$$$$
