_rank12
     RDKit          3D

 23 25  0  0  0  0  0  0  0  0999 V2000
   20.9658  -53.8278   21.2958 C   0  0  0  0  0  0  0  0  0  0  0  0
   22.2366  -54.6483   21.0675 C   0  0  0  0  0  0  0  0  0  0  0  0
   21.9602  -55.9311   20.4998 N   0  0  0  0  0  0  0  0  0  0  0  0
   21.5554  -57.0081   21.3604 C   0  0  0  0  0  0  0  0  0  0  0  0
   21.7754  -56.7251   22.8138 C   0  0  0  0  0  0  0  0  0  0  0  0
   22.0840  -56.1383   19.1058 C   0  0  0  0  0  0  0  0  0  0  0  0
   23.0424  -56.8364   18.6839 O   0  0  0  0  0  0  0  0  0  0  0  0
   21.1713  -55.5909   18.1548 N   0  0  0  0  0  0  0  0  0  0  0  0
   20.5021  -56.4211   17.1502 C   0  0  2  0  0  0  0  0  0  0  0  0
   21.5549  -57.0258   16.2123 C   0  0  0  0  0  0  0  0  0  0  0  0
   21.1233  -56.6911   14.8224 C   0  0  0  0  0  0  0  0  0  0  0  0
   20.0048  -55.8184   14.9168 N   0  0  0  0  0  0  0  0  0  0  0  0
   19.0477  -56.0685   13.9091 C   0  0  0  0  0  0  0  0  0  0  0  0
   17.8009  -55.1931   14.1054 C   0  0  0  0  0  0  0  0  0  0  0  0
   17.2852  -55.6368   15.4266 C   0  0  0  0  0  0  0  0  0  0  0  0
   15.9047  -55.8240   15.6075 C   0  0  0  0  0  0  0  0  0  0  0  0
   14.9492  -55.5902   14.5247 C   0  0  0  0  0  0  0  0  0  0  0  0
   15.4510  -56.2383   16.8404 C   0  0  0  0  0  0  0  0  0  0  0  0
   16.3481  -56.4647   17.8806 C   0  0  0  0  0  0  0  0  0  0  0  0
   17.6918  -56.2833   17.7077 C   0  0  0  0  0  0  0  0  0  0  0  0
   18.1711  -55.8596   16.4514 C   0  0  0  0  0  0  0  0  0  0  0  0
   19.5896  -55.6520   16.2501 C   0  0  1  0  0  0  0  0  0  0  0  0
   19.8466  -54.1657   16.5933 C   0  0  0  0  0  0  0  0  0  0  0  0
  1  2  1  6
  2  3  1  1
  4  3  1  1
  5  4  1  6
  3  6  1  0
  6  7  2  0
  6  8  1  0
  9  8  1  1
  9 10  1  0
 10 11  1  6
 11 12  1  1
 13 12  1  1
 13 14  1  0
 14 15  1  6
 15 16  2  0
 17 16  1  1
 16 18  1  0
 18 19  2  0
 19 20  1  0
 20 21  2  0
 22 21  1  6
 23 22  1  6
 22  9  1  0
 22 12  1  0
 21 15  1  0
M  END
$$$$
