_rank18
     RDKit          3D

 23 25  0  0  0  0  0  0  0  0999 V2000
    5.0301  -41.1229   28.1764 C   0  0  0  0  0  0  0  0  0  0  0  0
    4.1695  -41.4155   26.9722 C   0  0  0  0  0  0  0  0  0  0  0  0
    4.6196  -40.7819   25.7731 N   0  0  0  0  0  0  0  0  0  0  0  0
    3.7438  -39.8176   25.1419 C   0  0  0  0  0  0  0  0  0  0  0  0
    2.7485  -40.4719   24.2175 C   0  0  0  0  0  0  0  0  0  0  0  0
    5.8731  -41.0339   25.1555 C   0  0  0  0  0  0  0  0  0  0  0  0
    6.2713  -40.3690   24.1832 O   0  0  0  0  0  0  0  0  0  0  0  0
    6.7560  -42.0726   25.6178 N   0  0  0  0  0  0  0  0  0  0  0  0
    8.0117  -42.3978   25.0076 C   0  0  2  0  0  0  0  0  0  0  0  0
    8.0515  -43.7898   24.4224 C   0  0  0  0  0  0  0  0  0  0  0  0
    9.5196  -44.1171   24.4126 C   0  0  0  0  0  0  0  0  0  0  0  0
   10.0854  -43.2913   25.3459 N   0  0  0  0  0  0  0  0  0  0  0  0
   11.2630  -43.5645   26.0062 C   0  0  0  0  0  0  0  0  0  0  0  0
   12.1226  -42.3340   26.0711 C   0  0  0  0  0  0  0  0  0  0  0  0
   11.3516  -41.0809   25.8973 C   0  0  0  0  0  0  0  0  0  0  0  0
   12.1180  -39.9148   25.8423 C   0  0  0  0  0  0  0  0  0  0  0  0
   13.5955  -39.9232   25.9448 C   0  0  0  0  0  0  0  0  0  0  0  0
   11.4967  -38.6984   25.6862 C   0  0  0  0  0  0  0  0  0  0  0  0
   10.1440  -38.6577   25.5883 C   0  0  0  0  0  0  0  0  0  0  0  0
    9.3917  -39.8085   25.6428 C   0  0  0  0  0  0  0  0  0  0  0  0
    9.9676  -41.0241   25.7956 C   0  0  0  0  0  0  0  0  0  0  0  0
    9.2062  -42.3091   25.8613 C   0  0  1  0  0  0  0  0  0  0  0  0
    8.9726  -42.5904   27.3218 C   0  0  0  0  0  0  0  0  0  0  0  0
  1  2  1  6
  2  3  1  1
  4  3  1  1
  5  4  1  6
  3  6  1  0
  6  7  2  0
  6  8  1  0
  9  8  1  1
  9 10  1  0
 10 11  1  6
 11 12  1  1
 13 12  1  1
 13 14  1  0
 14 15  1  6
 15 16  2  0
 17 16  1  1
 16 18  1  0
 18 19  2  0
 19 20  1  0
 20 21  2  0
 22 21  1  1
 23 22  1  6
 22  9  1  0
 22 12  1  0
 21 15  1  0
M  END
$$$$
