_rank8
     RDKit          3D

 23 25  0  0  0  0  0  0  0  0999 V2000
   17.7626  -43.8974   11.2434 C   0  0  0  0  0  0  0  0  0  0  0  0
   17.0873  -43.1306   10.1333 C   0  0  0  0  0  0  0  0  0  0  0  0
   16.9304  -41.7369   10.4067 N   0  0  0  0  0  0  0  0  0  0  0  0
   18.0649  -40.8665   10.1814 C   0  0  0  0  0  0  0  0  0  0  0  0
   19.2466  -41.6079    9.6094 C   0  0  0  0  0  0  0  0  0  0  0  0
   15.7324  -41.1441   10.8857 C   0  0  0  0  0  0  0  0  0  0  0  0
   15.6735  -39.9414   11.1958 O   0  0  0  0  0  0  0  0  0  0  0  0
   14.5166  -41.8992   11.0404 N   0  0  0  0  0  0  0  0  0  0  0  0
   13.2869  -41.3588   11.5409 C   0  0  2  0  0  0  0  0  0  0  0  0
   13.2687  -41.2000   13.0428 C   0  0  0  0  0  0  0  0  0  0  0  0
   11.8016  -41.2257   13.3740 C   0  0  0  0  0  0  0  0  0  0  0  0
   11.1990  -41.8566   12.3194 N   0  0  0  0  0  0  0  0  0  0  0  0
    9.9944  -42.5194   12.4020 C   0  0  0  0  0  0  0  0  0  0  0  0
    9.1353  -42.1908   11.2141 C   0  0  0  0  0  0  0  0  0  0  0  0
    9.9154  -41.6933   10.0569 C   0  0  0  0  0  0  0  0  0  0  0  0
    9.1543  -41.2725    8.9644 C   0  0  0  0  0  0  0  0  0  0  0  0
    7.6739  -41.3131    8.9577 C   0  0  0  0  0  0  0  0  0  0  0  0
    9.7841  -40.7966    7.8388 C   0  0  0  0  0  0  0  0  0  0  0  0
   11.1397  -40.7461    7.8144 C   0  0  0  0  0  0  0  0  0  0  0  0
   11.8868  -41.1615    8.8926 C   0  0  0  0  0  0  0  0  0  0  0  0
   11.3026  -41.6358   10.0180 C   0  0  0  0  0  0  0  0  0  0  0  0
   12.0580  -42.1011   11.2213 C   0  0  1  0  0  0  0  0  0  0  0  0
   12.2298  -43.5888   11.0660 C   0  0  0  0  0  0  0  0  0  0  0  0
  1  2  1  6
  2  3  1  1
  4  3  1  1
  5  4  1  6
  3  6  1  0
  6  7  2  0
  6  8  1  0
  9  8  1  1
  9 10  1  0
 10 11  1  6
 11 12  1  1
 13 12  1  1
 13 14  1  0
 14 15  1  6
 15 16  2  0
 17 16  1  1
 16 18  1  0
 18 19  2  0
 19 20  1  0
 20 21  2  0
 22 21  1  6
 23 22  1  6
 22  9  1  0
 22 12  1  0
 21 15  1  0
M  END
$$$$
