_rank17
     RDKit          3D

 23 25  0  0  0  0  0  0  0  0999 V2000
    6.5057  -40.9596   39.7208 C   0  0  0  0  0  0  0  0  0  0  0  0
    6.6522  -40.3253   38.3597 C   0  0  0  0  0  0  0  0  0  0  0  0
    6.2583  -38.9523   38.3171 N   0  0  0  0  0  0  0  0  0  0  0  0
    7.2385  -37.9753   37.8927 C   0  0  0  0  0  0  0  0  0  0  0  0
    6.6102  -36.6450   37.5625 C   0  0  0  0  0  0  0  0  0  0  0  0
    4.9655  -38.4784   38.6633 C   0  0  0  0  0  0  0  0  0  0  0  0
    4.8022  -37.5458   39.4693 O   0  0  0  0  0  0  0  0  0  0  0  0
    3.7686  -39.0488   38.1026 N   0  0  0  0  0  0  0  0  0  0  0  0
    3.7389  -40.2296   37.2905 C   0  0  2  0  0  0  0  0  0  0  0  0
    3.2000  -39.9881   35.9003 C   0  0  0  0  0  0  0  0  0  0  0  0
    2.7029  -41.3452   35.4832 C   0  0  0  0  0  0  0  0  0  0  0  0
    2.4945  -42.0329   36.6481 N   0  0  0  0  0  0  0  0  0  0  0  0
    1.6154  -43.0855   36.7767 C   0  0  0  0  0  0  0  0  0  0  0  0
    2.2405  -44.1930   37.5766 C   0  0  0  0  0  0  0  0  0  0  0  0
    3.3630  -43.7298   38.4255 C   0  0  0  0  0  0  0  0  0  0  0  0
    4.0472  -44.7383   39.1075 C   0  0  0  0  0  0  0  0  0  0  0  0
    3.6855  -46.1697   38.9915 C   0  0  0  0  0  0  0  0  0  0  0  0
    5.1034  -44.4117   39.9247 C   0  0  0  0  0  0  0  0  0  0  0  0
    5.4598  -43.1087   40.0513 C   0  0  0  0  0  0  0  0  0  0  0  0
    4.7836  -42.1174   39.3779 C   0  0  0  0  0  0  0  0  0  0  0  0
    3.7390  -42.4000   38.5644 C   0  0  0  0  0  0  0  0  0  0  0  0
    2.9655  -41.3695   37.8062 C   0  0  1  0  0  0  0  0  0  0  0  0
    1.7848  -41.0061   38.6669 C   0  0  0  0  0  0  0  0  0  0  0  0
  1  2  1  6
  2  3  1  1
  4  3  1  1
  5  4  1  6
  3  6  1  0
  6  7  2  0
  6  8  1  0
  9  8  1  1
  9 10  1  0
 10 11  1  6
 11 12  1  1
 13 12  1  1
 13 14  1  0
 14 15  1  6
 15 16  2  0
 17 16  1  1
 16 18  1  0
 18 19  2  0
 19 20  1  0
 20 21  2  0
 22 21  1  1
 23 22  1  6
 22  9  1  0
 22 12  1  0
 21 15  1  0
M  END
$$$$
