_rank4
     RDKit          3D

 21 22  0  0  0  0  0  0  0  0999 V2000
   27.5139    0.7603  -13.2110 C   0  0  0  0  0  0  0  0  0  0  0  0
   26.1345    0.9635  -12.0869 S   0  0  1  0  0  6  0  0  0  0  0  0
   26.0117    2.4031  -11.7218 O   0  0  0  0  0  0  0  0  0  0  0  0
   24.8877    0.5302  -12.7880 O   0  0  0  0  0  0  0  0  0  0  0  0
   26.3588   -0.0009  -10.6658 C   0  0  0  0  0  0  0  0  0  0  0  0
   27.6315   -0.2344  -10.1515 C   0  0  0  0  0  0  0  0  0  0  0  0
   27.8233   -0.9853   -9.0396 C   0  0  0  0  0  0  0  0  0  0  0  0
   26.7390   -1.5260   -8.4087 C   0  0  0  0  0  0  0  0  0  0  0  0
   25.4776   -1.3147   -8.8895 C   0  0  0  0  0  0  0  0  0  0  0  0
   25.2683   -0.5445  -10.0318 C   0  0  0  0  0  0  0  0  0  0  0  0
   23.8916   -0.3886  -10.4522 C   0  0  0  0  0  0  0  0  0  0  0  0
   23.5931    0.2558  -11.4878 O   0  0  0  0  0  0  0  0  0  0  0  0
   22.8635   -0.9718   -9.6836 O   0  0  0  0  0  0  0  0  0  0  0  0
   21.5518   -0.8034  -10.1331 C   0  0  0  0  0  0  0  0  0  0  0  0
   21.0403   -1.6664  -11.0814 C   0  0  0  0  0  0  0  0  0  0  0  0
   19.7299   -1.4732  -11.5097 C   0  0  0  0  0  0  0  0  0  0  0  0
   19.2685   -2.3554  -12.4513 F   0  0  0  0  0  0  0  0  0  0  0  0
   18.9322   -0.4742  -11.0369 C   0  0  0  0  0  0  0  0  0  0  0  0
   19.4643    0.3923  -10.0766 C   0  0  0  0  0  0  0  0  0  0  0  0
   18.6989    1.4055   -9.5774 F   0  0  0  0  0  0  0  0  0  0  0  0
   20.7566    0.2253   -9.6346 C   0  0  0  0  0  0  0  0  0  0  0  0
  1  2  1  1
  2  3  2  0
  2  4  2  0
  2  5  1  1
  5  6  2  0
  6  7  1  0
  7  8  2  0
  8  9  1  0
  9 10  2  0
 10 11  1  0
 11 12  2  0
 11 13  1  0
 13 14  1  0
 14 15  2  0
 15 16  1  0
 16 17  1  0
 16 18  2  0
 18 19  1  0
 19 20  1  0
 19 21  2  0
 10  5  1  0
 21 14  1  0
M  END
$$$$
