_rank10
     RDKit          3D

 21 22  0  0  0  0  0  0  0  0999 V2000
   26.1324    1.0867   -7.9069 C   0  0  0  0  0  0  0  0  0  0  0  0
   26.8151   -0.3293   -8.7650 S   0  0  1  0  0  6  0  0  0  0  0  0
   28.2634   -0.4474   -8.4347 O   0  0  0  0  0  0  0  0  0  0  0  0
   26.1050   -1.5555   -8.2898 O   0  0  0  0  0  0  0  0  0  0  0  0
   26.5992   -0.1678  -10.4760 C   0  0  0  0  0  0  0  0  0  0  0  0
   27.6936   -0.1286  -11.3361 C   0  0  0  0  0  0  0  0  0  0  0  0
   27.5411   -0.0044  -12.6771 C   0  0  0  0  0  0  0  0  0  0  0  0
   26.2807    0.0846  -13.1963 C   0  0  0  0  0  0  0  0  0  0  0  0
   25.1872    0.0491  -12.3778 C   0  0  0  0  0  0  0  0  0  0  0  0
   25.3318   -0.0783  -10.9977 C   0  0  0  0  0  0  0  0  0  0  0  0
   24.1057   -0.1029  -10.2278 C   0  0  0  0  0  0  0  0  0  0  0  0
   23.7727    0.8628   -9.4976 O   0  0  0  0  0  0  0  0  0  0  0  0
   23.2673   -1.2343  -10.2984 O   0  0  0  0  0  0  0  0  0  0  0  0
   21.8884   -1.0117  -10.3051 C   0  0  0  0  0  0  0  0  0  0  0  0
   21.3948    0.2185   -9.9195 C   0  0  0  0  0  0  0  0  0  0  0  0
   20.0161    0.4101   -9.9366 C   0  0  0  0  0  0  0  0  0  0  0  0
   19.5758    1.6474   -9.5454 F   0  0  0  0  0  0  0  0  0  0  0  0
   19.1349   -0.5583  -10.3154 C   0  0  0  0  0  0  0  0  0  0  0  0
   19.6498   -1.7995  -10.7034 C   0  0  0  0  0  0  0  0  0  0  0  0
   18.8017   -2.7960  -11.0897 F   0  0  0  0  0  0  0  0  0  0  0  0
   21.0084   -2.0174  -10.6964 C   0  0  0  0  0  0  0  0  0  0  0  0
  1  2  1  1
  2  3  2  0
  2  4  2  0
  2  5  1  6
  5  6  2  0
  6  7  1  0
  7  8  2  0
  8  9  1  0
  9 10  2  0
 10 11  1  0
 11 12  2  0
 11 13  1  0
 13 14  1  0
 14 15  2  0
 15 16  1  0
 16 17  1  0
 16 18  2  0
 18 19  1  0
 19 20  1  0
 19 21  2  0
 10  5  1  0
 21 14  1  0
M  END
$$$$
