_rank19
     RDKit          3D

 21 22  0  0  0  0  0  0  0  0999 V2000
   20.3781    2.3239   -9.9341 C   0  0  0  0  0  0  0  0  0  0  0  0
   19.9291    0.8406   -9.0363 S   0  0  1  0  0  6  0  0  0  0  0  0
   20.9005    0.6304   -7.9260 O   0  0  0  0  0  0  0  0  0  0  0  0
   18.5639    1.0340   -8.4597 O   0  0  0  0  0  0  0  0  0  0  0  0
   19.9168   -0.5316  -10.0932 C   0  0  0  0  0  0  0  0  0  0  0  0
   18.7288   -1.1908  -10.3982 C   0  0  0  0  0  0  0  0  0  0  0  0
   18.7024   -2.2647  -11.2247 C   0  0  0  0  0  0  0  0  0  0  0  0
   19.8722   -2.7102  -11.7714 C   0  0  0  0  0  0  0  0  0  0  0  0
   21.0540   -2.0842  -11.4910 C   0  0  0  0  0  0  0  0  0  0  0  0
   21.0932   -0.9793  -10.6427 C   0  0  0  0  0  0  0  0  0  0  0  0
   22.3990   -0.3967  -10.4147 C   0  0  0  0  0  0  0  0  0  0  0  0
   22.5298    0.7052   -9.8269 O   0  0  0  0  0  0  0  0  0  0  0  0
   23.5487   -1.0797  -10.8614 O   0  0  0  0  0  0  0  0  0  0  0  0
   24.7878   -0.6010  -10.4297 C   0  0  0  0  0  0  0  0  0  0  0  0
   25.1058   -0.6465   -9.0872 C   0  0  0  0  0  0  0  0  0  0  0  0
   26.3482   -0.1620   -8.6875 C   0  0  0  0  0  0  0  0  0  0  0  0
   26.6166   -0.2289   -7.3454 F   0  0  0  0  0  0  0  0  0  0  0  0
   27.2612    0.3533   -9.5586 C   0  0  0  0  0  0  0  0  0  0  0  0
   26.9248    0.3928  -10.9156 C   0  0  0  0  0  0  0  0  0  0  0  0
   27.8106    0.9009  -11.8205 F   0  0  0  0  0  0  0  0  0  0  0  0
   25.7038   -0.0792  -11.3395 C   0  0  0  0  0  0  0  0  0  0  0  0
  1  2  1  1
  2  3  2  0
  2  4  2  0
  2  5  1  6
  5  6  2  0
  6  7  1  0
  7  8  2  0
  8  9  1  0
  9 10  2  0
 10 11  1  0
 11 12  2  0
 11 13  1  0
 13 14  1  0
 14 15  2  0
 15 16  1  0
 16 17  1  0
 16 18  2  0
 18 19  1  0
 19 20  1  0
 19 21  2  0
 10  5  1  0
 21 14  1  0
M  END
$$$$
