_rank5
     RDKit          3D

 21 22  0  0  0  0  0  0  0  0999 V2000
   25.6930    1.6122  -12.8452 C   0  0  0  0  0  0  0  0  0  0  0  0
   26.6723    0.2657  -12.1852 S   0  0  1  0  0  6  0  0  0  0  0  0
   26.1243   -1.0264  -12.6861 O   0  0  0  0  0  0  0  0  0  0  0  0
   28.0766    0.4214  -12.6725 O   0  0  0  0  0  0  0  0  0  0  0  0
   26.6592    0.2941  -10.4534 C   0  0  0  0  0  0  0  0  0  0  0  0
   27.8402    0.4379   -9.7299 C   0  0  0  0  0  0  0  0  0  0  0  0
   27.8463    0.4637   -8.3748 C   0  0  0  0  0  0  0  0  0  0  0  0
   26.6626    0.3455   -7.7034 C   0  0  0  0  0  0  0  0  0  0  0  0
   25.4872    0.2031   -8.3855 C   0  0  0  0  0  0  0  0  0  0  0  0
   25.4688    0.1751   -9.7787 C   0  0  0  0  0  0  0  0  0  0  0  0
   24.1685    0.0180  -10.3961 C   0  0  0  0  0  0  0  0  0  0  0  0
   24.0116   -0.6949  -11.4177 O   0  0  0  0  0  0  0  0  0  0  0  0
   23.0543    0.6789   -9.8395 O   0  0  0  0  0  0  0  0  0  0  0  0
   21.7879    0.1917  -10.1709 C   0  0  0  0  0  0  0  0  0  0  0  0
   20.6658    0.9125   -9.8146 C   0  0  0  0  0  0  0  0  0  0  0  0
   19.4175    0.4014  -10.1588 C   0  0  0  0  0  0  0  0  0  0  0  0
   18.3352    1.1532   -9.7832 F   0  0  0  0  0  0  0  0  0  0  0  0
   19.2538   -0.7742  -10.8290 C   0  0  0  0  0  0  0  0  0  0  0  0
   20.3999   -1.4933  -11.1833 C   0  0  0  0  0  0  0  0  0  0  0  0
   20.2799   -2.6748  -11.8550 F   0  0  0  0  0  0  0  0  0  0  0  0
   21.6469   -1.0123  -10.8562 C   0  0  0  0  0  0  0  0  0  0  0  0
  1  2  1  1
  2  3  2  0
  2  4  2  0
  2  5  1  1
  5  6  2  0
  6  7  1  0
  7  8  2  0
  8  9  1  0
  9 10  2  0
 10 11  1  0
 11 12  2  0
 11 13  1  0
 13 14  1  0
 14 15  2  0
 15 16  1  0
 16 17  1  0
 16 18  2  0
 18 19  1  0
 19 20  1  0
 19 21  2  0
 10  5  1  0
 21 14  1  0
M  END
$$$$
