_rank13
     RDKit          3D

 21 22  0  0  0  0  0  0  0  0999 V2000
   27.2129    2.6855   -9.6172 C   0  0  0  0  0  0  0  0  0  0  0  0
   27.0031    1.3372  -10.7773 S   0  0  1  0  0  6  0  0  0  0  0  0
   25.8298    1.6236  -11.6501 O   0  0  0  0  0  0  0  0  0  0  0  0
   28.2312    1.2494  -11.6245 O   0  0  0  0  0  0  0  0  0  0  0  0
   26.7770   -0.1604   -9.9370 C   0  0  0  0  0  0  0  0  0  0  0  0
   27.7926   -0.7037   -9.1544 C   0  0  0  0  0  0  0  0  0  0  0  0
   27.6305   -1.8735   -8.4895 C   0  0  0  0  0  0  0  0  0  0  0  0
   26.4398   -2.5351   -8.5909 C   0  0  0  0  0  0  0  0  0  0  0  0
   25.4244   -2.0273   -9.3513 C   0  0  0  0  0  0  0  0  0  0  0  0
   25.5796   -0.8254  -10.0393 C   0  0  0  0  0  0  0  0  0  0  0  0
   24.4399   -0.3831  -10.8151 C   0  0  0  0  0  0  0  0  0  0  0  0
   24.3166    0.8146  -11.1715 O   0  0  0  0  0  0  0  0  0  0  0  0
   23.4469   -1.3157  -11.1786 O   0  0  0  0  0  0  0  0  0  0  0  0
   22.1233   -0.9989  -10.8643 C   0  0  0  0  0  0  0  0  0  0  0  0
   21.6263    0.2483  -11.1853 C   0  0  0  0  0  0  0  0  0  0  0  0
   20.3035    0.5345  -10.8593 C   0  0  0  0  0  0  0  0  0  0  0  0
   19.8574    1.7850  -11.1984 F   0  0  0  0  0  0  0  0  0  0  0  0
   19.4800   -0.3577  -10.2399 C   0  0  0  0  0  0  0  0  0  0  0  0
   19.9976   -1.6173   -9.9209 C   0  0  0  0  0  0  0  0  0  0  0  0
   19.2064   -2.5396   -9.3005 F   0  0  0  0  0  0  0  0  0  0  0  0
   21.3017   -1.9280  -10.2312 C   0  0  0  0  0  0  0  0  0  0  0  0
  1  2  1  1
  2  3  2  0
  2  4  2  0
  2  5  1  1
  5  6  2  0
  6  7  1  0
  7  8  2  0
  8  9  1  0
  9 10  2  0
 10 11  1  0
 11 12  2  0
 11 13  1  0
 13 14  1  0
 14 15  2  0
 15 16  1  0
 16 17  1  0
 16 18  2  0
 18 19  1  0
 19 20  1  0
 19 21  2  0
 10  5  1  0
 21 14  1  0
M  END
$$$$
