_rank7
     RDKit          3D

 21 22  0  0  0  0  0  0  0  0999 V2000
   27.5016    0.7604  -12.9384 C   0  0  0  0  0  0  0  0  0  0  0  0
   26.0164    0.2473  -12.0790 S   0  0  1  0  0  6  0  0  0  0  0  0
   24.9338    1.2365  -12.3440 O   0  0  0  0  0  0  0  0  0  0  0  0
   25.6003   -1.0855  -12.6120 O   0  0  0  0  0  0  0  0  0  0  0  0
   26.3106    0.1185  -10.3769 C   0  0  0  0  0  0  0  0  0  0  0  0
   27.5648    0.4027   -9.8427 C   0  0  0  0  0  0  0  0  0  0  0  0
   27.8103    0.3083   -8.5132 C   0  0  0  0  0  0  0  0  0  0  0  0
   26.8003   -0.0756   -7.6774 C   0  0  0  0  0  0  0  0  0  0  0  0
   25.5589   -0.3612   -8.1718 C   0  0  0  0  0  0  0  0  0  0  0  0
   25.2949   -0.2677   -9.5369 C   0  0  0  0  0  0  0  0  0  0  0  0
   23.9462   -0.5954   -9.9493 C   0  0  0  0  0  0  0  0  0  0  0  0
   23.7037   -1.6137  -10.6428 O   0  0  0  0  0  0  0  0  0  0  0  0
   22.8819    0.2457   -9.5649 O   0  0  0  0  0  0  0  0  0  0  0  0
   21.5953   -0.1246   -9.9633 C   0  0  0  0  0  0  0  0  0  0  0  0
   21.4253   -1.2213  -10.7843 C   0  0  0  0  0  0  0  0  0  0  0  0
   20.1311   -1.5656  -11.1644 C   0  0  0  0  0  0  0  0  0  0  0  0
   20.0148   -2.6611  -11.9792 F   0  0  0  0  0  0  0  0  0  0  0  0
   19.0285   -0.8715  -10.7640 C   0  0  0  0  0  0  0  0  0  0  0  0
   19.2165    0.2372   -9.9324 C   0  0  0  0  0  0  0  0  0  0  0  0
   18.1390    0.9593   -9.5091 F   0  0  0  0  0  0  0  0  0  0  0  0
   20.4845    0.6010   -9.5407 C   0  0  0  0  0  0  0  0  0  0  0  0
  1  2  1  1
  2  3  2  0
  2  4  2  0
  2  5  1  1
  5  6  2  0
  6  7  1  0
  7  8  2  0
  8  9  1  0
  9 10  2  0
 10 11  1  0
 11 12  2  0
 11 13  1  0
 13 14  1  0
 14 15  2  0
 15 16  1  0
 16 17  1  0
 16 18  2  0
 18 19  1  0
 19 20  1  0
 19 21  2  0
 10  5  1  0
 21 14  1  0
M  END
$$$$
