_rank14
     RDKit          3D

 21 22  0  0  0  0  0  0  0  0999 V2000
   26.1634    1.5242   -8.3399 C   0  0  0  0  0  0  0  0  0  0  0  0
   26.6815   -0.1819   -8.5092 S   0  0  1  0  0  6  0  0  0  0  0  0
   27.9770   -0.3705   -7.7973 O   0  0  0  0  0  0  0  0  0  0  0  0
   25.6458   -1.0538   -7.8762 O   0  0  0  0  0  0  0  0  0  0  0  0
   26.8457   -0.6062  -10.1804 C   0  0  0  0  0  0  0  0  0  0  0  0
   28.0995   -0.8309  -10.7431 C   0  0  0  0  0  0  0  0  0  0  0  0
   28.2444   -1.1653  -12.0485 C   0  0  0  0  0  0  0  0  0  0  0  0
   27.1309   -1.2846  -12.8306 C   0  0  0  0  0  0  0  0  0  0  0  0
   25.8870   -1.0703  -12.3072 C   0  0  0  0  0  0  0  0  0  0  0  0
   25.7259   -0.7259  -10.9665 C   0  0  0  0  0  0  0  0  0  0  0  0
   24.3638   -0.5208  -10.5203 C   0  0  0  0  0  0  0  0  0  0  0  0
   24.1102    0.0953   -9.4560 O   0  0  0  0  0  0  0  0  0  0  0  0
   23.2989   -1.0227  -11.2961 O   0  0  0  0  0  0  0  0  0  0  0  0
   22.0013   -0.7676  -10.8463 C   0  0  0  0  0  0  0  0  0  0  0  0
   21.1324   -1.8202  -10.6395 C   0  0  0  0  0  0  0  0  0  0  0  0
   19.8460   -1.5343  -10.1910 C   0  0  0  0  0  0  0  0  0  0  0  0
   19.0217   -2.6124  -10.0010 F   0  0  0  0  0  0  0  0  0  0  0  0
   19.4072   -0.2670   -9.9476 C   0  0  0  0  0  0  0  0  0  0  0  0
   20.2989    0.7891  -10.1616 C   0  0  0  0  0  0  0  0  0  0  0  0
   19.8992    2.0730   -9.9300 F   0  0  0  0  0  0  0  0  0  0  0  0
   21.5768    0.5364  -10.6048 C   0  0  0  0  0  0  0  0  0  0  0  0
  1  2  1  1
  2  3  2  0
  2  4  2  0
  2  5  1  6
  5  6  2  0
  6  7  1  0
  7  8  2  0
  8  9  1  0
  9 10  2  0
 10 11  1  0
 11 12  2  0
 11 13  1  0
 13 14  1  0
 14 15  2  0
 15 16  1  0
 16 17  1  0
 16 18  2  0
 18 19  1  0
 19 20  1  0
 19 21  2  0
 10  5  1  0
 21 14  1  0
M  END
$$$$
