_rank15
     RDKit          3D

 21 22  0  0  0  0  0  0  0  0999 V2000
   26.3441    0.5206  -12.7052 C   0  0  0  0  0  0  0  0  0  0  0  0
   27.0524    1.1511  -11.1859 S   0  0  1  0  0  6  0  0  0  0  0  0
   28.3994    1.7190  -11.4753 O   0  0  0  0  0  0  0  0  0  0  0  0
   26.1662    2.2376  -10.6683 O   0  0  0  0  0  0  0  0  0  0  0  0
   27.1712   -0.1063  -10.0007 C   0  0  0  0  0  0  0  0  0  0  0  0
   28.3777   -0.3757   -9.3599 C   0  0  0  0  0  0  0  0  0  0  0  0
   28.4864   -1.3549   -8.4291 C   0  0  0  0  0  0  0  0  0  0  0  0
   27.3830   -2.0955   -8.1130 C   0  0  0  0  0  0  0  0  0  0  0  0
   26.1851   -1.8549   -8.7248 C   0  0  0  0  0  0  0  0  0  0  0  0
   26.0615   -0.8508   -9.6832 C   0  0  0  0  0  0  0  0  0  0  0  0
   24.7470   -0.6853  -10.2673 C   0  0  0  0  0  0  0  0  0  0  0  0
   24.5331    0.1652  -11.1658 O   0  0  0  0  0  0  0  0  0  0  0  0
   23.6839   -1.4955   -9.8186 O   0  0  0  0  0  0  0  0  0  0  0  0
   22.4341   -1.3005  -10.4112 C   0  0  0  0  0  0  0  0  0  0  0  0
   21.3222   -1.9192   -9.8761 C   0  0  0  0  0  0  0  0  0  0  0  0
   20.0905   -1.7057  -10.4887 C   0  0  0  0  0  0  0  0  0  0  0  0
   19.0177   -2.3414   -9.9206 F   0  0  0  0  0  0  0  0  0  0  0  0
   19.9335   -0.9162  -11.5887 C   0  0  0  0  0  0  0  0  0  0  0  0
   21.0691   -0.2959  -12.1195 C   0  0  0  0  0  0  0  0  0  0  0  0
   20.9552    0.5025  -13.2200 F   0  0  0  0  0  0  0  0  0  0  0  0
   22.2996   -0.4889  -11.5348 C   0  0  0  0  0  0  0  0  0  0  0  0
  1  2  1  1
  2  3  2  0
  2  4  2  0
  2  5  1  1
  5  6  2  0
  6  7  1  0
  7  8  2  0
  8  9  1  0
  9 10  2  0
 10 11  1  0
 11 12  2  0
 11 13  1  0
 13 14  1  0
 14 15  2  0
 15 16  1  0
 16 17  1  0
 16 18  2  0
 18 19  1  0
 19 20  1  0
 19 21  2  0
 10  5  1  0
 21 14  1  0
M  END
$$$$
