_rank18
     RDKit          3D

 21 22  0  0  0  0  0  0  0  0999 V2000
   27.5738    2.1785  -12.3249 C   0  0  0  0  0  0  0  0  0  0  0  0
   26.1478    1.2658  -11.7408 S   0  0  1  0  0  6  0  0  0  0  0  0
   25.1598    2.2217  -11.1657 O   0  0  0  0  0  0  0  0  0  0  0  0
   25.5272    0.5652  -12.9059 O   0  0  0  0  0  0  0  0  0  0  0  0
   26.6171    0.0972  -10.5516 C   0  0  0  0  0  0  0  0  0  0  0  0
   27.9563   -0.0878  -10.2179 C   0  0  0  0  0  0  0  0  0  0  0  0
   28.3393   -0.9968   -9.2884 C   0  0  0  0  0  0  0  0  0  0  0  0
   27.3858   -1.7498   -8.6641 C   0  0  0  0  0  0  0  0  0  0  0  0
   26.0636   -1.5913   -8.9703 C   0  0  0  0  0  0  0  0  0  0  0  0
   25.6581   -0.6599   -9.9242 C   0  0  0  0  0  0  0  0  0  0  0  0
   24.2335   -0.5781  -10.1702 C   0  0  0  0  0  0  0  0  0  0  0  0
   23.5782    0.4531   -9.8807 O   0  0  0  0  0  0  0  0  0  0  0  0
   23.5670   -1.6787  -10.7467 O   0  0  0  0  0  0  0  0  0  0  0  0
   22.1904   -1.5598  -10.9512 C   0  0  0  0  0  0  0  0  0  0  0  0
   21.6875   -1.5880  -12.2365 C   0  0  0  0  0  0  0  0  0  0  0  0
   20.3113   -1.4672  -12.4085 C   0  0  0  0  0  0  0  0  0  0  0  0
   19.8615   -1.5010  -13.7024 F   0  0  0  0  0  0  0  0  0  0  0  0
   19.4414   -1.3230  -11.3691 C   0  0  0  0  0  0  0  0  0  0  0  0
   19.9657   -1.2961  -10.0727 C   0  0  0  0  0  0  0  0  0  0  0  0
   19.1290   -1.1533   -9.0045 F   0  0  0  0  0  0  0  0  0  0  0  0
   21.3220   -1.4133   -9.8726 C   0  0  0  0  0  0  0  0  0  0  0  0
  1  2  1  1
  2  3  2  0
  2  4  2  0
  2  5  1  1
  5  6  2  0
  6  7  1  0
  7  8  2  0
  8  9  1  0
  9 10  2  0
 10 11  1  0
 11 12  2  0
 11 13  1  0
 13 14  1  0
 14 15  2  0
 15 16  1  0
 16 17  1  0
 16 18  2  0
 18 19  1  0
 19 20  1  0
 19 21  2  0
 10  5  1  0
 21 14  1  0
M  END
$$$$
