_rank2
     RDKit          3D

 21 22  0  0  0  0  0  0  0  0999 V2000
   26.6293    0.2751  -13.3294 C   0  0  0  0  0  0  0  0  0  0  0  0
   26.3987    1.2106  -11.8197 S   0  0  1  0  0  6  0  0  0  0  0  0
   27.3804    2.3312  -11.7861 O   0  0  0  0  0  0  0  0  0  0  0  0
   25.0147    1.7747  -11.8218 O   0  0  0  0  0  0  0  0  0  0  0  0
   26.6010    0.1914  -10.4339 C   0  0  0  0  0  0  0  0  0  0  0  0
   27.8562   -0.0003   -9.8622 C   0  0  0  0  0  0  0  0  0  0  0  0
   28.0306   -0.7932   -8.7769 C   0  0  0  0  0  0  0  0  0  0  0  0
   26.9461   -1.4194   -8.2313 C   0  0  0  0  0  0  0  0  0  0  0  0
   25.7017   -1.2509   -8.7699 C   0  0  0  0  0  0  0  0  0  0  0  0
   25.5104   -0.4382   -9.8857 C   0  0  0  0  0  0  0  0  0  0  0  0
   24.1508   -0.3338  -10.3728 C   0  0  0  0  0  0  0  0  0  0  0  0
   23.8916    0.2034  -11.4777 O   0  0  0  0  0  0  0  0  0  0  0  0
   23.0949   -0.8456   -9.5912 O   0  0  0  0  0  0  0  0  0  0  0  0
   21.8004   -0.7209  -10.1008 C   0  0  0  0  0  0  0  0  0  0  0  0
   21.0043    0.3290   -9.6893 C   0  0  0  0  0  0  0  0  0  0  0  0
   19.7189    0.4267  -10.2149 C   0  0  0  0  0  0  0  0  0  0  0  0
   18.9682    1.4856   -9.7756 F   0  0  0  0  0  0  0  0  0  0  0  0
   19.2129   -0.4642  -11.1139 C   0  0  0  0  0  0  0  0  0  0  0  0
   20.0313   -1.5227  -11.5213 C   0  0  0  0  0  0  0  0  0  0  0  0
   19.5630   -2.4364  -12.4198 F   0  0  0  0  0  0  0  0  0  0  0  0
   21.3063   -1.6443  -11.0185 C   0  0  0  0  0  0  0  0  0  0  0  0
  1  2  1  1
  2  3  2  0
  2  4  2  0
  2  5  1  1
  5  6  2  0
  6  7  1  0
  7  8  2  0
  8  9  1  0
  9 10  2  0
 10 11  1  0
 11 12  2  0
 11 13  1  0
 13 14  1  0
 14 15  2  0
 15 16  1  0
 16 17  1  0
 16 18  2  0
 18 19  1  0
 19 20  1  0
 19 21  2  0
 10  5  1  0
 21 14  1  0
M  END
$$$$
