_rank6
     RDKit          3D

 21 22  0  0  0  0  0  0  0  0999 V2000
   27.7517   -1.8445   -8.4098 C   0  0  0  0  0  0  0  0  0  0  0  0
   26.6889   -0.4223   -8.6449 S   0  0  1  0  0  6  0  0  0  0  0  0
   25.3043   -0.7734   -8.2205 O   0  0  0  0  0  0  0  0  0  0  0  0
   27.1948    0.6910   -7.7857 O   0  0  0  0  0  0  0  0  0  0  0  0
   26.7012    0.0807  -10.3023 C   0  0  0  0  0  0  0  0  0  0  0  0
   27.8988    0.3390  -10.9642 C   0  0  0  0  0  0  0  0  0  0  0  0
   27.9251    0.7315  -12.2612 C   0  0  0  0  0  0  0  0  0  0  0  0
   26.7456    0.8768  -12.9346 C   0  0  0  0  0  0  0  0  0  0  0  0
   25.5544    0.6308  -12.3123 C   0  0  0  0  0  0  0  0  0  0  0  0
   25.5150    0.2268  -10.9791 C   0  0  0  0  0  0  0  0  0  0  0  0
   24.1989   -0.0038  -10.4214 C   0  0  0  0  0  0  0  0  0  0  0  0
   23.9626    0.1863   -9.2029 O   0  0  0  0  0  0  0  0  0  0  0  0
   23.1599   -0.4512  -11.2629 O   0  0  0  0  0  0  0  0  0  0  0  0
   21.8591   -0.4063  -10.7558 C   0  0  0  0  0  0  0  0  0  0  0  0
   21.2883   -1.5531  -10.2414 C   0  0  0  0  0  0  0  0  0  0  0  0
   19.9905   -1.4769   -9.7434 C   0  0  0  0  0  0  0  0  0  0  0  0
   19.4685   -2.6414   -9.2440 F   0  0  0  0  0  0  0  0  0  0  0  0
   19.2609   -0.3256   -9.7407 C   0  0  0  0  0  0  0  0  0  0  0  0
   19.8526    0.8281  -10.2652 C   0  0  0  0  0  0  0  0  0  0  0  0
   19.1563    2.0013  -10.2812 F   0  0  0  0  0  0  0  0  0  0  0  0
   21.1341    0.7825  -10.7644 C   0  0  0  0  0  0  0  0  0  0  0  0
  1  2  1  1
  2  3  2  0
  2  4  2  0
  2  5  1  6
  5  6  2  0
  6  7  1  0
  7  8  2  0
  8  9  1  0
  9 10  2  0
 10 11  1  0
 11 12  2  0
 11 13  1  0
 13 14  1  0
 14 15  2  0
 15 16  1  0
 16 17  1  0
 16 18  2  0
 18 19  1  0
 19 20  1  0
 19 21  2  0
 10  5  1  0
 21 14  1  0
M  END
$$$$
