_rank3
     RDKit          3D

 21 22  0  0  0  0  0  0  0  0999 V2000
   25.7251    2.3897  -12.0882 C   0  0  0  0  0  0  0  0  0  0  0  0
   26.4740    0.7636  -12.1386 S   0  0  1  0  0  6  0  0  0  0  0  0
   25.6226   -0.1394  -12.9633 O   0  0  0  0  0  0  0  0  0  0  0  0
   27.8193    0.8842  -12.7783 O   0  0  0  0  0  0  0  0  0  0  0  0
   26.6543    0.1256  -10.5385 C   0  0  0  0  0  0  0  0  0  0  0  0
   27.9030    0.0720   -9.9246 C   0  0  0  0  0  0  0  0  0  0  0  0
   28.0603   -0.4227   -8.6726 C   0  0  0  0  0  0  0  0  0  0  0  0
   26.9645   -0.8800   -7.9973 C   0  0  0  0  0  0  0  0  0  0  0  0
   25.7260   -0.8406   -8.5731 C   0  0  0  0  0  0  0  0  0  0  0  0
   25.5523   -0.3342   -9.8598 C   0  0  0  0  0  0  0  0  0  0  0  0
   24.1976   -0.3427  -10.3708 C   0  0  0  0  0  0  0  0  0  0  0  0
   23.9253    0.1120  -11.5091 O   0  0  0  0  0  0  0  0  0  0  0  0
   23.1614   -0.8722   -9.5746 O   0  0  0  0  0  0  0  0  0  0  0  0
   21.8605   -0.7894  -10.0762 C   0  0  0  0  0  0  0  0  0  0  0  0
   21.2158   -1.9373  -10.4913 C   0  0  0  0  0  0  0  0  0  0  0  0
   19.9198   -1.8228  -10.9865 C   0  0  0  0  0  0  0  0  0  0  0  0
   19.3229   -2.9900  -11.3854 F   0  0  0  0  0  0  0  0  0  0  0  0
   19.2612   -0.6331  -11.0798 C   0  0  0  0  0  0  0  0  0  0  0  0
   19.9273    0.5213  -10.6555 C   0  0  0  0  0  0  0  0  0  0  0  0
   19.3035    1.7323  -10.7320 F   0  0  0  0  0  0  0  0  0  0  0  0
   21.2089    0.4383  -10.1615 C   0  0  0  0  0  0  0  0  0  0  0  0
  1  2  1  1
  2  3  2  0
  2  4  2  0
  2  5  1  1
  5  6  2  0
  6  7  1  0
  7  8  2  0
  8  9  1  0
  9 10  2  0
 10 11  1  0
 11 12  2  0
 11 13  1  0
 13 14  1  0
 14 15  2  0
 15 16  1  0
 16 17  1  0
 16 18  2  0
 18 19  1  0
 19 20  1  0
 19 21  2  0
 10  5  1  0
 21 14  1  0
M  END
$$$$
