_rank20
     RDKit          3D

 21 22  0  0  0  0  0  0  0  0999 V2000
   26.0996   -0.8938  -12.0896 C   0  0  0  0  0  0  0  0  0  0  0  0
   26.0469   -0.4390  -10.3582 S   0  0  1  0  0  6  0  0  0  0  0  0
   25.2828   -1.4737   -9.6058 O   0  0  0  0  0  0  0  0  0  0  0  0
   27.4479   -0.3945   -9.8398 O   0  0  0  0  0  0  0  0  0  0  0  0
   25.3112    1.1163  -10.1585 C   0  0  0  0  0  0  0  0  0  0  0  0
   26.0490    2.2048   -9.7002 C   0  0  0  0  0  0  0  0  0  0  0  0
   25.4883    3.4283   -9.5404 C   0  0  0  0  0  0  0  0  0  0  0  0
   24.1655    3.5961   -9.8370 C   0  0  0  0  0  0  0  0  0  0  0  0
   23.4154    2.5470  -10.2886 C   0  0  0  0  0  0  0  0  0  0  0  0
   23.9811    1.2846  -10.4567 C   0  0  0  0  0  0  0  0  0  0  0  0
   23.0933    0.2472  -10.9385 C   0  0  0  0  0  0  0  0  0  0  0  0
   23.4748   -0.9447  -11.0400 O   0  0  0  0  0  0  0  0  0  0  0  0
   21.7724    0.5810  -11.3016 O   0  0  0  0  0  0  0  0  0  0  0  0
   20.7901   -0.3945  -11.1164 C   0  0  0  0  0  0  0  0  0  0  0  0
   19.4974   -0.0122  -10.8190 C   0  0  0  0  0  0  0  0  0  0  0  0
   18.5405   -1.0073  -10.6400 C   0  0  0  0  0  0  0  0  0  0  0  0
   17.2729   -0.5772  -10.3467 F   0  0  0  0  0  0  0  0  0  0  0  0
   18.8212   -2.3370  -10.7448 C   0  0  0  0  0  0  0  0  0  0  0  0
   20.1352   -2.7090  -11.0465 C   0  0  0  0  0  0  0  0  0  0  0  0
   20.4581   -4.0298  -11.1603 F   0  0  0  0  0  0  0  0  0  0  0  0
   21.1020   -1.7470  -11.2287 C   0  0  0  0  0  0  0  0  0  0  0  0
  1  2  1  1
  2  3  2  0
  2  4  2  0
  2  5  1  6
  5  6  2  0
  6  7  1  0
  7  8  2  0
  8  9  1  0
  9 10  2  0
 10 11  1  0
 11 12  2  0
 11 13  1  0
 13 14  1  0
 14 15  2  0
 15 16  1  0
 16 17  1  0
 16 18  2  0
 18 19  1  0
 19 20  1  0
 19 21  2  0
 10  5  1  0
 21 14  1  0
M  END
$$$$
