_rank4
     RDKit          3D

 17 18  0  0  0  0  0  0  0  0999 V2000
   26.1726   -0.1177  -13.5746 N   0  0  0  0  0  0  0  0  0  0  0  0
   26.0301   -0.1340  -12.4281 C   0  0  0  0  0  0  0  0  0  0  0  0
   25.8272   -0.1494  -10.9935 C   0  0  0  0  0  0  0  0  0  0  0  0
   26.9223   -0.0837  -10.1620 C   0  0  0  0  0  0  0  0  0  0  0  0
   26.7204   -0.0989   -8.7935 C   0  0  0  0  0  0  0  0  0  0  0  0
   28.2363   -0.0079   -7.6449 Br  0  0  0  0  0  0  0  0  0  0  0  0
   25.4321   -0.1791   -8.2980 C   0  0  0  0  0  0  0  0  0  0  0  0
   24.3280   -0.2454   -9.1190 C   0  0  0  0  0  0  0  0  0  0  0  0
   24.5375   -0.2298  -10.4800 C   0  0  0  0  0  0  0  0  0  0  0  0
   23.4659   -0.2939  -11.3510 O   0  0  0  0  0  0  0  0  0  0  0  0
   22.1927   -0.5131  -10.8905 C   0  0  0  0  0  0  0  0  0  0  0  0
   21.7838   -1.7048  -10.3058 C   0  0  0  0  0  0  0  0  0  0  0  0
   20.5099   -1.9060   -9.8521 C   0  0  0  0  0  0  0  0  0  0  0  0
   19.5898   -0.8820   -9.9800 C   0  0  0  0  0  0  0  0  0  0  0  0
   19.9414    0.3278  -10.5548 C   0  0  0  0  0  0  0  0  0  0  0  0
   19.0451    1.3173  -10.6762 F   0  0  0  0  0  0  0  0  0  0  0  0
   21.2515    0.4763  -10.9986 C   0  0  0  0  0  0  0  0  0  0  0  0
  1  2  3  0
  2  3  1  0
  3  4  2  0
  4  5  1  0
  5  6  1  0
  5  7  2  0
  7  8  1  0
  8  9  2  0
  9 10  1  0
 10 11  1  0
 11 12  2  0
 12 13  1  0
 13 14  2  0
 14 15  1  0
 15 16  1  0
 15 17  2  0
  9  3  1  0
 17 11  1  0
M  END
$$$$
