_rank7
     RDKit          3D

 17 18  0  0  0  0  0  0  0  0999 V2000
   26.2939    0.2818  -13.5997 N   0  0  0  0  0  0  0  0  0  0  0  0
   26.1217    0.0940  -12.4727 C   0  0  0  0  0  0  0  0  0  0  0  0
   25.9233   -0.1245  -11.0540 C   0  0  0  0  0  0  0  0  0  0  0  0
   27.0233   -0.2374  -10.2341 C   0  0  0  0  0  0  0  0  0  0  0  0
   26.8257   -0.4460   -8.8809 C   0  0  0  0  0  0  0  0  0  0  0  0
   28.3483   -0.6019   -7.7482 Br  0  0  0  0  0  0  0  0  0  0  0  0
   25.5367   -0.5353   -8.3887 C   0  0  0  0  0  0  0  0  0  0  0  0
   24.4277   -0.4241   -9.1982 C   0  0  0  0  0  0  0  0  0  0  0  0
   24.6330   -0.2166  -10.5440 C   0  0  0  0  0  0  0  0  0  0  0  0
   23.5564   -0.0975  -11.4030 O   0  0  0  0  0  0  0  0  0  0  0  0
   22.2751   -0.3162  -10.9654 C   0  0  0  0  0  0  0  0  0  0  0  0
   21.4046    0.7035  -10.6031 C   0  0  0  0  0  0  0  0  0  0  0  0
   20.1299    0.4671  -10.1688 C   0  0  0  0  0  0  0  0  0  0  0  0
   19.6882   -0.8404  -10.0863 C   0  0  0  0  0  0  0  0  0  0  0  0
   20.5126   -1.8972  -10.4344 C   0  0  0  0  0  0  0  0  0  0  0  0
   20.0789   -3.1631  -10.3525 F   0  0  0  0  0  0  0  0  0  0  0  0
   21.7994   -1.5972  -10.8695 C   0  0  0  0  0  0  0  0  0  0  0  0
  1  2  3  0
  2  3  1  0
  3  4  2  0
  4  5  1  0
  5  6  1  0
  5  7  2  0
  7  8  1  0
  8  9  2  0
  9 10  1  0
 10 11  1  0
 11 12  2  0
 12 13  1  0
 13 14  2  0
 14 15  1  0
 15 16  1  0
 15 17  2  0
  9  3  1  0
 17 11  1  0
M  END
$$$$
