_rank16
     RDKit          3D

 17 18  0  0  0  0  0  0  0  0999 V2000
   23.7235    0.3357  -14.1871 N   0  0  0  0  0  0  0  0  0  0  0  0
   23.2117    0.1448  -13.1690 C   0  0  0  0  0  0  0  0  0  0  0  0
   22.5875   -0.1113  -11.8866 C   0  0  0  0  0  0  0  0  0  0  0  0
   21.2432    0.1427  -11.7341 C   0  0  0  0  0  0  0  0  0  0  0  0
   20.6545   -0.1044  -10.5068 C   0  0  0  0  0  0  0  0  0  0  0  0
   18.7950    0.2475  -10.2975 Br  0  0  0  0  0  0  0  0  0  0  0  0
   21.4260   -0.5971   -9.4705 C   0  0  0  0  0  0  0  0  0  0  0  0
   22.7719   -0.8554   -9.6100 C   0  0  0  0  0  0  0  0  0  0  0  0
   23.3502   -0.6068  -10.8348 C   0  0  0  0  0  0  0  0  0  0  0  0
   24.6972   -0.8478  -11.0314 O   0  0  0  0  0  0  0  0  0  0  0  0
   25.6140   -0.5819  -10.0466 C   0  0  0  0  0  0  0  0  0  0  0  0
   25.2982   -0.5480   -8.6945 C   0  0  0  0  0  0  0  0  0  0  0  0
   26.2255   -0.2812   -7.7258 C   0  0  0  0  0  0  0  0  0  0  0  0
   27.5315   -0.0348   -8.1066 C   0  0  0  0  0  0  0  0  0  0  0  0
   27.9038   -0.0555   -9.4403 C   0  0  0  0  0  0  0  0  0  0  0  0
   29.1718    0.1842   -9.8037 F   0  0  0  0  0  0  0  0  0  0  0  0
   26.9184   -0.3326  -10.3824 C   0  0  0  0  0  0  0  0  0  0  0  0
  1  2  3  0
  2  3  1  0
  3  4  2  0
  4  5  1  0
  5  6  1  0
  5  7  2  0
  7  8  1  0
  8  9  2  0
  9 10  1  0
 10 11  1  0
 11 12  2  0
 12 13  1  0
 13 14  2  0
 14 15  1  0
 15 16  1  0
 15 17  2  0
  9  3  1  0
 17 11  1  0
M  END
$$$$
