_rank3
     RDKit          3D

 17 18  0  0  0  0  0  0  0  0999 V2000
   25.9912    0.6461  -13.6890 N   0  0  0  0  0  0  0  0  0  0  0  0
   25.8845    0.3603  -12.5746 C   0  0  0  0  0  0  0  0  0  0  0  0
   25.7735    0.0108  -11.1727 C   0  0  0  0  0  0  0  0  0  0  0  0
   26.8668    0.1772  -10.3530 C   0  0  0  0  0  0  0  0  0  0  0  0
   26.7530   -0.1587   -9.0159 C   0  0  0  0  0  0  0  0  0  0  0  0
   28.2663    0.0720   -7.8835 Br  0  0  0  0  0  0  0  0  0  0  0  0
   25.5518   -0.6501   -8.5390 C   0  0  0  0  0  0  0  0  0  0  0  0
   24.4505   -0.8213   -9.3486 C   0  0  0  0  0  0  0  0  0  0  0  0
   24.5720   -0.4846  -10.6783 C   0  0  0  0  0  0  0  0  0  0  0  0
   23.4989   -0.6359  -11.5365 O   0  0  0  0  0  0  0  0  0  0  0  0
   22.2095   -0.5921  -11.0709 C   0  0  0  0  0  0  0  0  0  0  0  0
   21.6637    0.5121  -10.4292 C   0  0  0  0  0  0  0  0  0  0  0  0
   20.3757    0.5384   -9.9712 C   0  0  0  0  0  0  0  0  0  0  0  0
   19.5830   -0.5796  -10.1537 C   0  0  0  0  0  0  0  0  0  0  0  0
   20.0742   -1.7091  -10.7867 C   0  0  0  0  0  0  0  0  0  0  0  0
   19.3010   -2.7903  -10.9609 F   0  0  0  0  0  0  0  0  0  0  0  0
   21.3918   -1.6792  -11.2320 C   0  0  0  0  0  0  0  0  0  0  0  0
  1  2  3  0
  2  3  1  0
  3  4  2  0
  4  5  1  0
  5  6  1  0
  5  7  2  0
  7  8  1  0
  8  9  2  0
  9 10  1  0
 10 11  1  0
 11 12  2  0
 12 13  1  0
 13 14  2  0
 14 15  1  0
 15 16  1  0
 15 17  2  0
  9  3  1  0
 17 11  1  0
M  END
$$$$
