_rank1
     RDKit          3D

 17 18  0  0  0  0  0  0  0  0999 V2000
   25.9420    0.6610  -13.7189 N   0  0  0  0  0  0  0  0  0  0  0  0
   25.8276    0.3791  -12.6042 C   0  0  0  0  0  0  0  0  0  0  0  0
   25.7085    0.0200  -11.2054 C   0  0  0  0  0  0  0  0  0  0  0  0
   26.8117    0.1318  -10.3896 C   0  0  0  0  0  0  0  0  0  0  0  0
   26.6900   -0.2130   -9.0554 C   0  0  0  0  0  0  0  0  0  0  0  0
   28.2169   -0.0579   -7.9284 Br  0  0  0  0  0  0  0  0  0  0  0  0
   25.4714   -0.6583   -8.5775 C   0  0  0  0  0  0  0  0  0  0  0  0
   24.3601   -0.7746   -9.3832 C   0  0  0  0  0  0  0  0  0  0  0  0
   24.4895   -0.4294  -10.7100 C   0  0  0  0  0  0  0  0  0  0  0  0
   23.4070   -0.5265  -11.5643 O   0  0  0  0  0  0  0  0  0  0  0  0
   22.1511   -0.8001  -11.0858 C   0  0  0  0  0  0  0  0  0  0  0  0
   21.5712   -2.0613  -11.1328 C   0  0  0  0  0  0  0  0  0  0  0  0
   20.3173   -2.3162  -10.6508 C   0  0  0  0  0  0  0  0  0  0  0  0
   19.5961   -1.2766  -10.0935 C   0  0  0  0  0  0  0  0  0  0  0  0
   20.1239    0.0015  -10.0200 C   0  0  0  0  0  0  0  0  0  0  0  0
   19.4200    1.0058   -9.4784 F   0  0  0  0  0  0  0  0  0  0  0  0
   21.4041    0.2024  -10.5261 C   0  0  0  0  0  0  0  0  0  0  0  0
  1  2  3  0
  2  3  1  0
  3  4  2  0
  4  5  1  0
  5  6  1  0
  5  7  2  0
  7  8  1  0
  8  9  2  0
  9 10  1  0
 10 11  1  0
 11 12  2  0
 12 13  1  0
 13 14  2  0
 14 15  1  0
 15 16  1  0
 15 17  2  0
  9  3  1  0
 17 11  1  0
M  END
$$$$
