_rank2
     RDKit          3D

 17 18  0  0  0  0  0  0  0  0999 V2000
   26.1259    0.7533  -13.7964 N   0  0  0  0  0  0  0  0  0  0  0  0
   26.0145    0.4634  -12.6835 C   0  0  0  0  0  0  0  0  0  0  0  0
   25.8698    0.1236  -11.2823 C   0  0  0  0  0  0  0  0  0  0  0  0
   26.9703    0.1979  -10.4587 C   0  0  0  0  0  0  0  0  0  0  0  0
   26.8242   -0.1281   -9.1222 C   0  0  0  0  0  0  0  0  0  0  0  0
   28.3475   -0.0249   -7.9844 Br  0  0  0  0  0  0  0  0  0  0  0  0
   25.5846   -0.5179   -8.6499 C   0  0  0  0  0  0  0  0  0  0  0  0
   24.4757   -0.5963   -9.4634 C   0  0  0  0  0  0  0  0  0  0  0  0
   24.6295   -0.2702  -10.7924 C   0  0  0  0  0  0  0  0  0  0  0  0
   23.5505   -0.3311  -11.6545 O   0  0  0  0  0  0  0  0  0  0  0  0
   22.2905   -0.6121  -11.1913 C   0  0  0  0  0  0  0  0  0  0  0  0
   21.7174   -1.8760  -11.2483 C   0  0  0  0  0  0  0  0  0  0  0  0
   20.4594   -2.1383  -10.7815 C   0  0  0  0  0  0  0  0  0  0  0  0
   19.7266   -1.1038  -10.2299 C   0  0  0  0  0  0  0  0  0  0  0  0
   20.2472    0.1767  -10.1470 C   0  0  0  0  0  0  0  0  0  0  0  0
   19.5321    1.1761   -9.6111 F   0  0  0  0  0  0  0  0  0  0  0  0
   21.5321    0.3853  -10.6377 C   0  0  0  0  0  0  0  0  0  0  0  0
  1  2  3  0
  2  3  1  0
  3  4  2  0
  4  5  1  0
  5  6  1  0
  5  7  2  0
  7  8  1  0
  8  9  2  0
  9 10  1  0
 10 11  1  0
 11 12  2  0
 12 13  1  0
 13 14  2  0
 14 15  1  0
 15 16  1  0
 15 17  2  0
  9  3  1  0
 17 11  1  0
M  END
$$$$
