_rank6
     RDKit          3D

 17 18  0  0  0  0  0  0  0  0999 V2000
   26.3574    0.3653  -13.5799 N   0  0  0  0  0  0  0  0  0  0  0  0
   26.2213    0.1744  -12.4485 C   0  0  0  0  0  0  0  0  0  0  0  0
   26.0720   -0.0532  -11.0252 C   0  0  0  0  0  0  0  0  0  0  0  0
   27.1996   -0.1843  -10.2467 C   0  0  0  0  0  0  0  0  0  0  0  0
   27.0488   -0.4013   -8.8887 C   0  0  0  0  0  0  0  0  0  0  0  0
   28.6096   -0.5824   -7.8132 Br  0  0  0  0  0  0  0  0  0  0  0  0
   25.7776   -0.4807   -8.3507 C   0  0  0  0  0  0  0  0  0  0  0  0
   24.6414   -0.3513   -9.1187 C   0  0  0  0  0  0  0  0  0  0  0  0
   24.8000   -0.1354  -10.4695 C   0  0  0  0  0  0  0  0  0  0  0  0
   23.6945    0.0020  -11.2880 O   0  0  0  0  0  0  0  0  0  0  0  0
   22.4799   -0.5249  -10.9299 C   0  0  0  0  0  0  0  0  0  0  0  0
   22.1527   -1.8665  -11.0785 C   0  0  0  0  0  0  0  0  0  0  0  0
   20.9363   -2.3748  -10.7159 C   0  0  0  0  0  0  0  0  0  0  0  0
   19.9923   -1.5191  -10.1792 C   0  0  0  0  0  0  0  0  0  0  0  0
   20.2633   -0.1719  -10.0079 C   0  0  0  0  0  0  0  0  0  0  0  0
   19.3440    0.6532   -9.4868 F   0  0  0  0  0  0  0  0  0  0  0  0
   21.5174    0.2896  -10.3945 C   0  0  0  0  0  0  0  0  0  0  0  0
  1  2  3  0
  2  3  1  0
  3  4  2  0
  4  5  1  0
  5  6  1  0
  5  7  2  0
  7  8  1  0
  8  9  2  0
  9 10  1  0
 10 11  1  0
 11 12  2  0
 12 13  1  0
 13 14  2  0
 14 15  1  0
 15 16  1  0
 15 17  2  0
  9  3  1  0
 17 11  1  0
M  END
$$$$
