_rank17
     RDKit          3D

 17 18  0  0  0  0  0  0  0  0999 V2000
   22.9203   -3.3793   -9.1725 N   0  0  0  0  0  0  0  0  0  0  0  0
   23.6295   -2.5113   -9.4532 C   0  0  0  0  0  0  0  0  0  0  0  0
   24.5321   -1.4272   -9.7844 C   0  0  0  0  0  0  0  0  0  0  0  0
   25.5979   -1.1662   -8.9533 C   0  0  0  0  0  0  0  0  0  0  0  0
   26.4551   -0.1295   -9.2762 C   0  0  0  0  0  0  0  0  0  0  0  0
   27.9288    0.2302   -8.1255 Br  0  0  0  0  0  0  0  0  0  0  0  0
   26.2216    0.6139  -10.4184 C   0  0  0  0  0  0  0  0  0  0  0  0
   25.1589    0.3631  -11.2583 C   0  0  0  0  0  0  0  0  0  0  0  0
   24.3104   -0.6705  -10.9298 C   0  0  0  0  0  0  0  0  0  0  0  0
   23.2277   -0.9669  -11.7367 O   0  0  0  0  0  0  0  0  0  0  0  0
   21.9470   -0.6914  -11.3306 C   0  0  0  0  0  0  0  0  0  0  0  0
   20.8270   -1.3393  -11.8355 C   0  0  0  0  0  0  0  0  0  0  0  0
   19.5568   -1.0519  -11.4190 C   0  0  0  0  0  0  0  0  0  0  0  0
   19.3787   -0.0763  -10.4556 C   0  0  0  0  0  0  0  0  0  0  0  0
   20.4588    0.6023   -9.9165 C   0  0  0  0  0  0  0  0  0  0  0  0
   20.2801    1.5473   -8.9825 F   0  0  0  0  0  0  0  0  0  0  0  0
   21.7279    0.2683  -10.3780 C   0  0  0  0  0  0  0  0  0  0  0  0
  1  2  3  0
  2  3  1  0
  3  4  2  0
  4  5  1  0
  5  6  1  0
  5  7  2  0
  7  8  1  0
  8  9  2  0
  9 10  1  0
 10 11  1  0
 11 12  2  0
 12 13  1  0
 13 14  2  0
 14 15  1  0
 15 16  1  0
 15 17  2  0
  9  3  1  0
 17 11  1  0
M  END
$$$$
