_rank15
     RDKit          3D

 17 18  0  0  0  0  0  0  0  0999 V2000
   21.8488   -3.7036  -10.6896 N   0  0  0  0  0  0  0  0  0  0  0  0
   21.7477   -2.5559  -10.6028 C   0  0  0  0  0  0  0  0  0  0  0  0
   21.6071   -1.1164  -10.5148 C   0  0  0  0  0  0  0  0  0  0  0  0
   20.4090   -0.5857  -10.0931 C   0  0  0  0  0  0  0  0  0  0  0  0
   20.2825    0.7895  -10.0117 C   0  0  0  0  0  0  0  0  0  0  0  0
   18.6246    1.5219   -9.4282 Br  0  0  0  0  0  0  0  0  0  0  0  0
   21.3556    1.5916  -10.3536 C   0  0  0  0  0  0  0  0  0  0  0  0
   22.5596    1.0732  -10.7770 C   0  0  0  0  0  0  0  0  0  0  0  0
   22.6773   -0.2966  -10.8553 C   0  0  0  0  0  0  0  0  0  0  0  0
   23.8628   -0.8715  -11.2739 O   0  0  0  0  0  0  0  0  0  0  0  0
   25.0017   -0.7751  -10.5159 C   0  0  0  0  0  0  0  0  0  0  0  0
   25.0056   -0.8314   -9.1281 C   0  0  0  0  0  0  0  0  0  0  0  0
   26.1510   -0.7334   -8.3880 C   0  0  0  0  0  0  0  0  0  0  0  0
   27.3557   -0.5717   -9.0469 C   0  0  0  0  0  0  0  0  0  0  0  0
   27.4120   -0.5089  -10.4292 C   0  0  0  0  0  0  0  0  0  0  0  0
   28.5830   -0.3520  -11.0628 F   0  0  0  0  0  0  0  0  0  0  0  0
   26.2153   -0.6141  -11.1305 C   0  0  0  0  0  0  0  0  0  0  0  0
  1  2  3  0
  2  3  1  0
  3  4  2  0
  4  5  1  0
  5  6  1  0
  5  7  2  0
  7  8  1  0
  8  9  2  0
  9 10  1  0
 10 11  1  0
 11 12  2  0
 12 13  1  0
 13 14  2  0
 14 15  1  0
 15 16  1  0
 15 17  2  0
  9  3  1  0
 17 11  1  0
M  END
$$$$
