_rank19
     RDKit          3D

 17 18  0  0  0  0  0  0  0  0999 V2000
   24.3109    3.1784  -10.8687 N   0  0  0  0  0  0  0  0  0  0  0  0
   24.7026    2.2032  -10.3885 C   0  0  0  0  0  0  0  0  0  0  0  0
   25.1916    0.9907   -9.7636 C   0  0  0  0  0  0  0  0  0  0  0  0
   26.5342    0.8781   -9.4811 C   0  0  0  0  0  0  0  0  0  0  0  0
   26.9934   -0.2826   -8.8845 C   0  0  0  0  0  0  0  0  0  0  0  0
   28.8507   -0.4367   -8.4944 Br  0  0  0  0  0  0  0  0  0  0  0  0
   26.0983   -1.2941   -8.5889 C   0  0  0  0  0  0  0  0  0  0  0  0
   24.7527   -1.1939   -8.8664 C   0  0  0  0  0  0  0  0  0  0  0  0
   24.3037   -0.0355   -9.4602 C   0  0  0  0  0  0  0  0  0  0  0  0
   22.9634    0.1193   -9.7612 O   0  0  0  0  0  0  0  0  0  0  0  0
   22.2277   -0.9217  -10.2674 C   0  0  0  0  0  0  0  0  0  0  0  0
   21.0371   -1.3634   -9.7048 C   0  0  0  0  0  0  0  0  0  0  0  0
   20.3163   -2.4033  -10.2231 C   0  0  0  0  0  0  0  0  0  0  0  0
   20.7910   -3.0421  -11.3536 C   0  0  0  0  0  0  0  0  0  0  0  0
   21.9723   -2.6445  -11.9570 C   0  0  0  0  0  0  0  0  0  0  0  0
   22.4279   -3.2676  -13.0531 F   0  0  0  0  0  0  0  0  0  0  0  0
   22.6638   -1.5808  -11.3862 C   0  0  0  0  0  0  0  0  0  0  0  0
  1  2  3  0
  2  3  1  0
  3  4  2  0
  4  5  1  0
  5  6  1  0
  5  7  2  0
  7  8  1  0
  8  9  2  0
  9 10  1  0
 10 11  1  0
 11 12  2  0
 12 13  1  0
 13 14  2  0
 14 15  1  0
 15 16  1  0
 15 17  2  0
  9  3  1  0
 17 11  1  0
M  END
$$$$
