_rank12
     RDKit          3D

 17 18  0  0  0  0  0  0  0  0999 V2000
   25.6121   -0.7963   -7.2233 N   0  0  0  0  0  0  0  0  0  0  0  0
   25.5578   -0.5245   -8.3450 C   0  0  0  0  0  0  0  0  0  0  0  0
   25.4976   -0.2065   -9.7574 C   0  0  0  0  0  0  0  0  0  0  0  0
   26.6387   -0.3226  -10.5186 C   0  0  0  0  0  0  0  0  0  0  0  0
   26.5732   -0.0172  -11.8663 C   0  0  0  0  0  0  0  0  0  0  0  0
   28.1525   -0.1782  -12.9178 Br  0  0  0  0  0  0  0  0  0  0  0  0
   25.3712    0.3942  -12.4118 C   0  0  0  0  0  0  0  0  0  0  0  0
   24.2223    0.5144  -11.6612 C   0  0  0  0  0  0  0  0  0  0  0  0
   24.2959    0.2086  -10.3205 C   0  0  0  0  0  0  0  0  0  0  0  0
   23.1739    0.3114   -9.5195 O   0  0  0  0  0  0  0  0  0  0  0  0
   21.9429   -0.0893   -9.9724 C   0  0  0  0  0  0  0  0  0  0  0  0
   20.8300    0.7412  -10.0025 C   0  0  0  0  0  0  0  0  0  0  0  0
   19.6097    0.3248  -10.4574 C   0  0  0  0  0  0  0  0  0  0  0  0
   19.4768   -0.9761  -10.9063 C   0  0  0  0  0  0  0  0  0  0  0  0
   20.5523   -1.8485  -10.8995 C   0  0  0  0  0  0  0  0  0  0  0  0
   20.4176   -3.1089  -11.3359 F   0  0  0  0  0  0  0  0  0  0  0  0
   21.7697   -1.3703  -10.4256 C   0  0  0  0  0  0  0  0  0  0  0  0
  1  2  3  0
  2  3  1  0
  3  4  2  0
  4  5  1  0
  5  6  1  0
  5  7  2  0
  7  8  1  0
  8  9  2  0
  9 10  1  0
 10 11  1  0
 11 12  2  0
 12 13  1  0
 13 14  2  0
 14 15  1  0
 15 16  1  0
 15 17  2  0
  9  3  1  0
 17 11  1  0
M  END
$$$$
