_rank10
     RDKit          3D

 17 18  0  0  0  0  0  0  0  0999 V2000
   25.7777    2.0949  -13.0434 N   0  0  0  0  0  0  0  0  0  0  0  0
   25.7962    1.3192  -12.1872 C   0  0  0  0  0  0  0  0  0  0  0  0
   25.8377    0.3593  -11.1025 C   0  0  0  0  0  0  0  0  0  0  0  0
   27.0118    0.1887  -10.4045 C   0  0  0  0  0  0  0  0  0  0  0  0
   27.0435   -0.7296   -9.3704 C   0  0  0  0  0  0  0  0  0  0  0  0
   28.6685   -0.9644   -8.4060 Br  0  0  0  0  0  0  0  0  0  0  0  0
   25.9026   -1.4486   -9.0654 C   0  0  0  0  0  0  0  0  0  0  0  0
   24.7216   -1.2873   -9.7560 C   0  0  0  0  0  0  0  0  0  0  0  0
   24.6983   -0.3713  -10.7839 C   0  0  0  0  0  0  0  0  0  0  0  0
   23.5400   -0.1685  -11.5108 O   0  0  0  0  0  0  0  0  0  0  0  0
   22.3979   -0.8751  -11.2325 C   0  0  0  0  0  0  0  0  0  0  0  0
   21.9344   -1.9226  -12.0180 C   0  0  0  0  0  0  0  0  0  0  0  0
   20.7932   -2.6164  -11.7254 C   0  0  0  0  0  0  0  0  0  0  0  0
   20.0699   -2.2616  -10.6018 C   0  0  0  0  0  0  0  0  0  0  0  0
   20.4844   -1.2254   -9.7820 C   0  0  0  0  0  0  0  0  0  0  0  0
   19.7791   -0.8858   -8.6937 F   0  0  0  0  0  0  0  0  0  0  0  0
   21.6530   -0.5548  -10.1285 C   0  0  0  0  0  0  0  0  0  0  0  0
  1  2  3  0
  2  3  1  0
  3  4  2  0
  4  5  1  0
  5  6  1  0
  5  7  2  0
  7  8  1  0
  8  9  2  0
  9 10  1  0
 10 11  1  0
 11 12  2  0
 12 13  1  0
 13 14  2  0
 14 15  1  0
 15 16  1  0
 15 17  2  0
  9  3  1  0
 17 11  1  0
M  END
$$$$
