_rank9
     RDKit          3D

 19 20  0  0  0  0  0  0  0  0999 V2000
   18.5130   -3.6213   -9.5748 N   0  0  0  0  0  0  0  0  0  0  0  0
   19.2260   -2.6362   -9.8786 C   0  0  0  0  0  0  0  0  0  0  0  0
   20.0417   -1.5228  -10.2011 C   0  0  0  0  0  0  0  0  0  0  0  0
   19.4556   -0.2298  -10.0247 C   0  0  0  0  0  0  0  0  0  0  0  0
   20.2773    0.8843  -10.4033 C   0  0  0  0  0  0  0  0  0  0  0  0
   21.4509    0.7770  -10.8723 C   0  0  0  0  0  0  0  0  0  0  0  0
   22.1149   -0.4859  -11.0793 C   0  0  0  0  0  0  0  0  0  0  0  0
   23.3415   -0.5444  -11.5751 O   0  0  0  0  0  0  0  0  0  0  0  0
   24.5243   -0.2659  -10.7380 C   0  0  0  0  0  0  0  0  0  0  0  0
   24.2720   -0.5953   -9.5513 C   0  0  0  0  0  0  0  0  0  0  0  0
   25.3214   -0.4644   -8.5714 C   0  0  0  0  0  0  0  0  0  0  0  0
   26.5704    0.0298   -8.9506 C   0  0  0  0  0  0  0  0  0  0  0  0
   27.6926    0.0482   -8.0949 C   0  0  0  0  0  0  0  0  0  0  0  0
   27.4317   -0.4773   -6.8424 O   0  0  0  0  0  0  0  0  0  0  0  0
   28.9596    0.4524   -8.1737 O   0  0  0  0  0  0  0  0  0  0  0  0
   26.6839    0.3827  -10.3641 C   0  0  0  0  0  0  0  0  0  0  0  0
   25.6346    0.2404  -11.3403 C   0  0  0  0  0  0  0  0  0  0  0  0
   25.8767    0.4611  -12.6329 N   0  0  0  0  0  0  0  0  0  0  0  0
   21.3391   -1.5819  -10.7210 C   0  0  0  0  0  0  0  0  0  0  0  0
  1  2  3  0
  2  3  1  0
  3  4  2  0
  4  5  1  0
  5  6  2  0
  6  7  1  0
  7  8  1  0
  8  9  1  0
  9 10  2  0
 10 11  1  0
 11 12  2  0
 12 13  1  0
 13 14  2  0
 13 15  1  0
 12 16  1  0
 16 17  2  0
 17 18  1  0
  7 19  2  0
 19  3  1  0
 17  9  1  0
M  END
$$$$
