_rank16
     RDKit          3D

 19 20  0  0  0  0  0  0  0  0999 V2000
   17.4432    1.6033   -9.4155 N   0  0  0  0  0  0  0  0  0  0  0  0
   18.4562    0.9120   -9.6740 C   0  0  0  0  0  0  0  0  0  0  0  0
   19.5946    0.1143   -9.9511 C   0  0  0  0  0  0  0  0  0  0  0  0
   19.5270   -1.2565   -9.5476 C   0  0  0  0  0  0  0  0  0  0  0  0
   20.7067   -2.0369   -9.7904 C   0  0  0  0  0  0  0  0  0  0  0  0
   21.7650   -1.5822  -10.3214 C   0  0  0  0  0  0  0  0  0  0  0  0
   21.9152   -0.2162  -10.7575 C   0  0  0  0  0  0  0  0  0  0  0  0
   23.0433    0.2106  -11.3043 O   0  0  0  0  0  0  0  0  0  0  0  0
   24.3488   -0.0225  -10.6573 C   0  0  0  0  0  0  0  0  0  0  0  0
   24.5909    0.9279   -9.8709 C   0  0  0  0  0  0  0  0  0  0  0  0
   25.7966    0.8682   -9.0827 C   0  0  0  0  0  0  0  0  0  0  0  0
   26.6627   -0.2180   -9.2165 C   0  0  0  0  0  0  0  0  0  0  0  0
   27.7798   -0.4302   -8.3805 C   0  0  0  0  0  0  0  0  0  0  0  0
   28.0134    0.6163   -7.5067 O   0  0  0  0  0  0  0  0  0  0  0  0
   28.6910   -1.3874   -8.2120 O   0  0  0  0  0  0  0  0  0  0  0  0
   26.2376   -1.2218  -10.1896 C   0  0  0  0  0  0  0  0  0  0  0  0
   25.0267   -1.1611  -10.9670 C   0  0  0  0  0  0  0  0  0  0  0  0
   24.6577   -2.1917  -11.7286 N   0  0  0  0  0  0  0  0  0  0  0  0
   20.7858    0.5618  -10.5325 C   0  0  0  0  0  0  0  0  0  0  0  0
  1  2  3  0
  2  3  1  0
  3  4  2  0
  4  5  1  0
  5  6  2  0
  6  7  1  0
  7  8  1  0
  8  9  1  0
  9 10  2  0
 10 11  1  0
 11 12  2  0
 12 13  1  0
 13 14  2  0
 13 15  1  0
 12 16  1  0
 16 17  2  0
 17 18  1  0
  7 19  2  0
 19  3  1  0
 17  9  1  0
M  END
$$$$
