_rank10
     RDKit          3D

 19 20  0  0  0  0  0  0  0  0999 V2000
   17.7315    1.9106  -10.0373 N   0  0  0  0  0  0  0  0  0  0  0  0
   18.6709    1.0827  -10.0922 C   0  0  0  0  0  0  0  0  0  0  0  0
   19.7209    0.1335  -10.1690 C   0  0  0  0  0  0  0  0  0  0  0  0
   19.5409   -1.0784   -9.4306 C   0  0  0  0  0  0  0  0  0  0  0  0
   20.6346   -2.0063   -9.4788 C   0  0  0  0  0  0  0  0  0  0  0  0
   21.7117   -1.8054  -10.1179 C   0  0  0  0  0  0  0  0  0  0  0  0
   21.9723   -0.6144  -10.8874 C   0  0  0  0  0  0  0  0  0  0  0  0
   23.1157   -0.4512  -11.5353 O   0  0  0  0  0  0  0  0  0  0  0  0
   24.3852   -0.2364  -10.8143 C   0  0  0  0  0  0  0  0  0  0  0  0
   24.1341   -0.0032   -9.6049 C   0  0  0  0  0  0  0  0  0  0  0  0
   25.2437    0.1750   -8.7019 C   0  0  0  0  0  0  0  0  0  0  0  0
   26.5517    0.0999   -9.1830 C   0  0  0  0  0  0  0  0  0  0  0  0
   27.6898    0.1111   -8.3483 C   0  0  0  0  0  0  0  0  0  0  0  0
   27.3812    0.2532   -7.0076 O   0  0  0  0  0  0  0  0  0  0  0  0
   29.0089    0.0265   -8.5143 O   0  0  0  0  0  0  0  0  0  0  0  0
   26.6610   -0.1577  -10.6172 C   0  0  0  0  0  0  0  0  0  0  0  0
   25.5483   -0.3445  -11.5123 C   0  0  0  0  0  0  0  0  0  0  0  0
   25.7509   -0.7103  -12.7786 N   0  0  0  0  0  0  0  0  0  0  0  0
   20.9278    0.3018  -10.8562 C   0  0  0  0  0  0  0  0  0  0  0  0
  1  2  3  0
  2  3  1  0
  3  4  2  0
  4  5  1  0
  5  6  2  0
  6  7  1  0
  7  8  1  0
  8  9  1  0
  9 10  2  0
 10 11  1  0
 11 12  2  0
 12 13  1  0
 13 14  2  0
 13 15  1  0
 12 16  1  0
 16 17  2  0
 17 18  1  0
  7 19  2  0
 19  3  1  0
 17  9  1  0
M  END
$$$$
