_rank15
     RDKit          3D

 19 20  0  0  0  0  0  0  0  0999 V2000
   19.3092   -3.8255   -9.4416 N   0  0  0  0  0  0  0  0  0  0  0  0
   19.7796   -2.7089   -9.7624 C   0  0  0  0  0  0  0  0  0  0  0  0
   20.3067   -1.4506  -10.1471 C   0  0  0  0  0  0  0  0  0  0  0  0
   19.4389   -0.3230   -9.9991 C   0  0  0  0  0  0  0  0  0  0  0  0
   19.9704    0.9350  -10.4401 C   0  0  0  0  0  0  0  0  0  0  0  0
   21.1270    1.0842  -10.9389 C   0  0  0  0  0  0  0  0  0  0  0  0
   22.0629    0.0027  -11.1208 C   0  0  0  0  0  0  0  0  0  0  0  0
   23.2591    0.2104  -11.6497 O   0  0  0  0  0  0  0  0  0  0  0  0
   24.4692    0.2900  -10.8091 C   0  0  0  0  0  0  0  0  0  0  0  0
   24.1372    0.1722   -9.6023 C   0  0  0  0  0  0  0  0  0  0  0  0
   25.1809    0.1586   -8.6079 C   0  0  0  0  0  0  0  0  0  0  0  0
   26.5150    0.2881   -8.9971 C   0  0  0  0  0  0  0  0  0  0  0  0
   27.6027    0.1340   -8.1110 C   0  0  0  0  0  0  0  0  0  0  0  0
   27.2318    0.1807   -6.7794 O   0  0  0  0  0  0  0  0  0  0  0  0
   28.9189   -0.0408   -8.2202 O   0  0  0  0  0  0  0  0  0  0  0  0
   26.7196    0.4357  -10.4365 C   0  0  0  0  0  0  0  0  0  0  0  0
   25.6730    0.4387  -11.4259 C   0  0  0  0  0  0  0  0  0  0  0  0
   25.9693    0.4419  -12.7260 N   0  0  0  0  0  0  0  0  0  0  0  0
   21.5714   -1.2280  -10.7020 C   0  0  0  0  0  0  0  0  0  0  0  0
  1  2  3  0
  2  3  1  0
  3  4  2  0
  4  5  1  0
  5  6  2  0
  6  7  1  0
  7  8  1  0
  8  9  1  0
  9 10  2  0
 10 11  1  0
 11 12  2  0
 12 13  1  0
 13 14  2  0
 13 15  1  0
 12 16  1  0
 16 17  2  0
 17 18  1  0
  7 19  2  0
 19  3  1  0
 17  9  1  0
M  END
$$$$
