_rank13
     RDKit          3D

 19 20  0  0  0  0  0  0  0  0999 V2000
   18.0684   -3.4294  -10.2296 N   0  0  0  0  0  0  0  0  0  0  0  0
   18.9056   -2.5078  -10.3735 C   0  0  0  0  0  0  0  0  0  0  0  0
   19.8586   -1.4680  -10.5140 C   0  0  0  0  0  0  0  0  0  0  0  0
   19.4109   -0.1455  -10.2024 C   0  0  0  0  0  0  0  0  0  0  0  0
   20.3733    0.9009  -10.3982 C   0  0  0  0  0  0  0  0  0  0  0  0
   21.5539    0.7129  -10.8222 C   0  0  0  0  0  0  0  0  0  0  0  0
   22.0840   -0.5854  -11.1567 C   0  0  0  0  0  0  0  0  0  0  0  0
   23.3242   -0.7284  -11.5987 O   0  0  0  0  0  0  0  0  0  0  0  0
   24.4864   -0.4106  -10.7468 C   0  0  0  0  0  0  0  0  0  0  0  0
   24.2221   -0.7281   -9.5596 C   0  0  0  0  0  0  0  0  0  0  0  0
   25.2519   -0.5588   -8.5649 C   0  0  0  0  0  0  0  0  0  0  0  0
   26.4954   -0.0418   -8.9313 C   0  0  0  0  0  0  0  0  0  0  0  0
   27.6027    0.0149   -8.0579 C   0  0  0  0  0  0  0  0  0  0  0  0
   28.4082    1.1191   -8.2699 O   0  0  0  0  0  0  0  0  0  0  0  0
   28.0906   -0.7323   -7.0687 O   0  0  0  0  0  0  0  0  0  0  0  0
   26.6243    0.2928  -10.3479 C   0  0  0  0  0  0  0  0  0  0  0  0
   25.5947    0.1121  -11.3386 C   0  0  0  0  0  0  0  0  0  0  0  0
   25.8531    0.3192  -12.6304 N   0  0  0  0  0  0  0  0  0  0  0  0
   21.1704   -1.6171  -10.9766 C   0  0  0  0  0  0  0  0  0  0  0  0
  1  2  3  0
  2  3  1  0
  3  4  2  0
  4  5  1  0
  5  6  2  0
  6  7  1  0
  7  8  1  0
  8  9  1  0
  9 10  2  0
 10 11  1  0
 11 12  2  0
 12 13  1  0
 13 14  2  0
 13 15  1  0
 12 16  1  0
 16 17  2  0
 17 18  1  0
  7 19  2  0
 19  3  1  0
 17  9  1  0
M  END
$$$$
