_rank18
     RDKit          3D

 19 20  0  0  0  0  0  0  0  0999 V2000
   17.4383    1.9603   -9.0802 N   0  0  0  0  0  0  0  0  0  0  0  0
   18.3829    1.3466   -9.6297 C   0  0  0  0  0  0  0  0  0  0  0  0
   19.4362    0.6373  -10.2596 C   0  0  0  0  0  0  0  0  0  0  0  0
   19.5215    0.7527  -11.6829 C   0  0  0  0  0  0  0  0  0  0  0  0
   20.5624   -0.0115  -12.3091 C   0  0  0  0  0  0  0  0  0  0  0  0
   21.3742   -0.7576  -11.6821 C   0  0  0  0  0  0  0  0  0  0  0  0
   21.3581   -0.9281  -10.2506 C   0  0  0  0  0  0  0  0  0  0  0  0
   22.2268   -1.7220   -9.6431 O   0  0  0  0  0  0  0  0  0  0  0  0
   23.6430   -1.3377   -9.4877 C   0  0  0  0  0  0  0  0  0  0  0  0
   23.7016   -0.1565   -9.0614 C   0  0  0  0  0  0  0  0  0  0  0  0
   25.0008    0.4003   -8.7775 C   0  0  0  0  0  0  0  0  0  0  0  0
   26.1481   -0.3652   -8.9909 C   0  0  0  0  0  0  0  0  0  0  0  0
   27.4408    0.0441   -8.5993 C   0  0  0  0  0  0  0  0  0  0  0  0
   28.3474   -0.9986   -8.5373 O   0  0  0  0  0  0  0  0  0  0  0  0
   28.0285    1.1906   -8.2600 O   0  0  0  0  0  0  0  0  0  0  0  0
   25.8982   -1.7088   -9.5081 C   0  0  0  0  0  0  0  0  0  0  0  0
   24.5970   -2.2628   -9.7806 C   0  0  0  0  0  0  0  0  0  0  0  0
   24.4639   -3.5452  -10.1211 N   0  0  0  0  0  0  0  0  0  0  0  0
   20.3576   -0.1985   -9.6196 C   0  0  0  0  0  0  0  0  0  0  0  0
  1  2  3  0
  2  3  1  0
  3  4  2  0
  4  5  1  0
  5  6  2  0
  6  7  1  0
  7  8  1  0
  8  9  1  0
  9 10  2  0
 10 11  1  0
 11 12  2  0
 12 13  1  0
 13 14  2  0
 13 15  1  0
 12 16  1  0
 16 17  2  0
 17 18  1  0
  7 19  2  0
 19  3  1  0
 17  9  1  0
M  END
$$$$
