_rank4
     RDKit          3D

 19 20  0  0  0  0  0  0  0  0999 V2000
   17.8982    1.9296   -9.6692 N   0  0  0  0  0  0  0  0  0  0  0  0
   18.7851    1.0844   -9.9340 C   0  0  0  0  0  0  0  0  0  0  0  0
   19.8019    0.1457  -10.2404 C   0  0  0  0  0  0  0  0  0  0  0  0
   19.5565   -1.2098   -9.8545 C   0  0  0  0  0  0  0  0  0  0  0  0
   20.6170   -2.1375  -10.1270 C   0  0  0  0  0  0  0  0  0  0  0  0
   21.7191   -1.8206  -10.6690 C   0  0  0  0  0  0  0  0  0  0  0  0
   22.0452   -0.4805  -11.0889 C   0  0  0  0  0  0  0  0  0  0  0  0
   23.2125   -0.2004  -11.6483 O   0  0  0  0  0  0  0  0  0  0  0  0
   24.4386   -0.0562  -10.8399 C   0  0  0  0  0  0  0  0  0  0  0  0
   24.1861   -0.3824   -9.6524 C   0  0  0  0  0  0  0  0  0  0  0  0
   25.2685   -0.3747   -8.7002 C   0  0  0  0  0  0  0  0  0  0  0  0
   26.5499    0.0015   -9.1057 C   0  0  0  0  0  0  0  0  0  0  0  0
   27.6904   -0.1074   -8.2816 C   0  0  0  0  0  0  0  0  0  0  0  0
   28.5992   -1.0488   -8.7299 O   0  0  0  0  0  0  0  0  0  0  0  0
   28.1284    0.4628   -7.1600 O   0  0  0  0  0  0  0  0  0  0  0  0
   26.6608    0.3693  -10.5156 C   0  0  0  0  0  0  0  0  0  0  0  0
   25.5773    0.3501  -11.4643 C   0  0  0  0  0  0  0  0  0  0  0  0
   25.8062    0.5713  -12.7593 N   0  0  0  0  0  0  0  0  0  0  0  0
   21.0340    0.4384  -10.8350 C   0  0  0  0  0  0  0  0  0  0  0  0
  1  2  3  0
  2  3  1  0
  3  4  2  0
  4  5  1  0
  5  6  2  0
  6  7  1  0
  7  8  1  0
  8  9  1  0
  9 10  2  0
 10 11  1  0
 11 12  2  0
 12 13  1  0
 13 14  2  0
 13 15  1  0
 12 16  1  0
 16 17  2  0
 17 18  1  0
  7 19  2  0
 19  3  1  0
 17  9  1  0
M  END
$$$$
