_rank8
     RDKit          3D

 19 20  0  0  0  0  0  0  0  0999 V2000
   17.7177   -3.1617  -10.5266 N   0  0  0  0  0  0  0  0  0  0  0  0
   18.6335   -2.3061  -10.5427 C   0  0  0  0  0  0  0  0  0  0  0  0
   19.6604   -1.3291  -10.5418 C   0  0  0  0  0  0  0  0  0  0  0  0
   19.3062   -0.0314  -10.0548 C   0  0  0  0  0  0  0  0  0  0  0  0
   20.3436    0.9589  -10.1076 C   0  0  0  0  0  0  0  0  0  0  0  0
   21.5117    0.7441  -10.5529 C   0  0  0  0  0  0  0  0  0  0  0  0
   21.9500   -0.5326  -11.0593 C   0  0  0  0  0  0  0  0  0  0  0  0
   23.1810   -0.7049  -11.5163 O   0  0  0  0  0  0  0  0  0  0  0  0
   24.3548   -0.2085  -10.7725 C   0  0  0  0  0  0  0  0  0  0  0  0
   24.2216   -0.4997   -9.5569 C   0  0  0  0  0  0  0  0  0  0  0  0
   25.2936   -0.1599   -8.6547 C   0  0  0  0  0  0  0  0  0  0  0  0
   26.4319    0.4868   -9.1384 C   0  0  0  0  0  0  0  0  0  0  0  0
   27.5855    0.7187   -8.3590 C   0  0  0  0  0  0  0  0  0  0  0  0
   27.7179   -0.1663   -7.3044 O   0  0  0  0  0  0  0  0  0  0  0  0
   28.5966    1.5862   -8.3664 O   0  0  0  0  0  0  0  0  0  0  0  0
   26.4118    0.7677  -10.5723 C   0  0  0  0  0  0  0  0  0  0  0  0
   25.3417    0.4168  -11.4701 C   0  0  0  0  0  0  0  0  0  0  0  0
   25.4750    0.5929  -12.7852 N   0  0  0  0  0  0  0  0  0  0  0  0
   20.9626   -1.5099  -11.0200 C   0  0  0  0  0  0  0  0  0  0  0  0
  1  2  3  0
  2  3  1  0
  3  4  2  0
  4  5  1  0
  5  6  2  0
  6  7  1  0
  7  8  1  0
  8  9  1  0
  9 10  2  0
 10 11  1  0
 11 12  2  0
 12 13  1  0
 13 14  2  0
 13 15  1  0
 12 16  1  0
 16 17  2  0
 17 18  1  0
  7 19  2  0
 19  3  1  0
 17  9  1  0
M  END
$$$$
