_rank6
     RDKit          3D

 19 20  0  0  0  0  0  0  0  0999 V2000
   18.0704   -3.5677  -10.7021 N   0  0  0  0  0  0  0  0  0  0  0  0
   18.8949   -2.6237  -10.6981 C   0  0  0  0  0  0  0  0  0  0  0  0
   19.8101   -1.5414  -10.6899 C   0  0  0  0  0  0  0  0  0  0  0  0
   19.3420   -0.3140  -10.1234 C   0  0  0  0  0  0  0  0  0  0  0  0
   20.2636    0.7852  -10.1686 C   0  0  0  0  0  0  0  0  0  0  0  0
   21.4260    0.7201  -10.6720 C   0  0  0  0  0  0  0  0  0  0  0  0
   21.9746   -0.4764  -11.2602 C   0  0  0  0  0  0  0  0  0  0  0  0
   23.1944   -0.4919  -11.7758 O   0  0  0  0  0  0  0  0  0  0  0  0
   24.3761   -0.1330  -10.9681 C   0  0  0  0  0  0  0  0  0  0  0  0
   24.2003   -0.5289   -9.7880 C   0  0  0  0  0  0  0  0  0  0  0  0
   25.2683   -0.3349   -8.8393 C   0  0  0  0  0  0  0  0  0  0  0  0
   26.4503    0.2900   -9.2398 C   0  0  0  0  0  0  0  0  0  0  0  0
   27.5968    0.3837   -8.4221 C   0  0  0  0  0  0  0  0  0  0  0  0
   27.4222   -0.1810   -7.1716 O   0  0  0  0  0  0  0  0  0  0  0  0
   28.8245    0.8885   -8.5359 O   0  0  0  0  0  0  0  0  0  0  0  0
   26.4774    0.7046  -10.6408 C   0  0  0  0  0  0  0  0  0  0  0  0
   25.4105    0.4991  -11.5862 C   0  0  0  0  0  0  0  0  0  0  0  0
   25.5826    0.7898  -12.8762 N   0  0  0  0  0  0  0  0  0  0  0  0
   21.1006   -1.5565  -11.2299 C   0  0  0  0  0  0  0  0  0  0  0  0
  1  2  3  0
  2  3  1  0
  3  4  2  0
  4  5  1  0
  5  6  2  0
  6  7  1  0
  7  8  1  0
  8  9  1  0
  9 10  2  0
 10 11  1  0
 11 12  2  0
 12 13  1  0
 13 14  2  0
 13 15  1  0
 12 16  1  0
 16 17  2  0
 17 18  1  0
  7 19  2  0
 19  3  1  0
 17  9  1  0
M  END
$$$$
