_rank19
     RDKit          3D

 19 20  0  0  0  0  0  0  0  0999 V2000
   17.0092    1.5151   -9.5942 N   0  0  0  0  0  0  0  0  0  0  0  0
   18.1502    1.1201   -9.9303 C   0  0  0  0  0  0  0  0  0  0  0  0
   19.4315    0.6534  -10.3174 C   0  0  0  0  0  0  0  0  0  0  0  0
   19.8398    0.9468  -11.6566 C   0  0  0  0  0  0  0  0  0  0  0  0
   21.1179    0.4239  -12.0476 C   0  0  0  0  0  0  0  0  0  0  0  0
   21.8687   -0.2625  -11.2901 C   0  0  0  0  0  0  0  0  0  0  0  0
   21.5341   -0.6008   -9.9292 C   0  0  0  0  0  0  0  0  0  0  0  0
   22.3523   -1.3235   -9.1794 O   0  0  0  0  0  0  0  0  0  0  0  0
   23.8153   -1.1409   -9.2403 C   0  0  0  0  0  0  0  0  0  0  0  0
   24.0964    0.0307   -8.8817 C   0  0  0  0  0  0  0  0  0  0  0  0
   25.4869    0.4040   -8.8072 C   0  0  0  0  0  0  0  0  0  0  0  0
   26.4754   -0.5225   -9.1422 C   0  0  0  0  0  0  0  0  0  0  0  0
   27.8548   -0.2914   -8.9535 C   0  0  0  0  0  0  0  0  0  0  0  0
   28.1394    0.9949   -8.5322 O   0  0  0  0  0  0  0  0  0  0  0  0
   28.9779   -0.9962   -9.0833 O   0  0  0  0  0  0  0  0  0  0  0  0
   25.9715   -1.8301   -9.5567 C   0  0  0  0  0  0  0  0  0  0  0  0
   24.5810   -2.1999   -9.6196 C   0  0  0  0  0  0  0  0  0  0  0  0
   24.2254   -3.4589   -9.8784 N   0  0  0  0  0  0  0  0  0  0  0  0
   20.2993   -0.1065   -9.5259 C   0  0  0  0  0  0  0  0  0  0  0  0
  1  2  3  0
  2  3  1  0
  3  4  2  0
  4  5  1  0
  5  6  2  0
  6  7  1  0
  7  8  1  0
  8  9  1  0
  9 10  2  0
 10 11  1  0
 11 12  2  0
 12 13  1  0
 13 14  2  0
 13 15  1  0
 12 16  1  0
 16 17  2  0
 17 18  1  0
  7 19  2  0
 19  3  1  0
 17  9  1  0
M  END
$$$$
