_rank2
     RDKit          3D

 17 18  0  0  0  0  0  0  0  0999 V2000
   27.6065    1.6702   -8.8527 C   0  0  0  0  0  0  0  0  0  0  0  0
   26.8423    1.2098   -9.9404 O   0  0  0  0  0  0  0  0  0  0  0  0
   26.0289    0.1955   -9.4552 C   0  0  2  0  0  0  0  0  0  0  0  0
   26.7255   -1.1472   -9.4759 C   0  0  0  0  0  0  0  0  0  0  0  0
   26.7724   -1.5155  -10.9458 C   0  0  0  0  0  0  0  0  0  0  0  0
   25.7882   -0.5794  -11.6348 C   0  0  0  0  0  0  0  0  0  0  0  0
   24.9246   -0.0334  -10.4880 C   0  0  1  0  0  0  0  0  0  0  0  0
   23.9806   -0.9380  -10.0660 O   0  0  0  0  0  0  0  0  0  0  0  0
   22.6204   -0.9351  -10.3081 C   0  0  0  0  0  0  0  0  0  0  0  0
   22.0890   -1.8371  -11.1933 C   0  0  0  0  0  0  0  0  0  0  0  0
   20.7119   -1.8585  -11.4596 C   0  0  0  0  0  0  0  0  0  0  0  0
   20.2033   -2.7673  -12.3466 F   0  0  0  0  0  0  0  0  0  0  0  0
   19.9133   -0.9465  -10.8047 C   0  0  0  0  0  0  0  0  0  0  0  0
   20.4377   -0.0293   -9.9074 C   0  0  0  0  0  0  0  0  0  0  0  0
   19.5597    0.9105   -9.2427 C   0  0  0  0  0  0  0  0  0  0  0  0
   18.8555    1.6514   -8.7013 N   0  0  0  0  0  0  0  0  0  0  0  0
   21.7867   -0.0243   -9.6606 C   0  0  0  0  0  0  0  0  0  0  0  0
  1  2  1  6
  3  2  1  6
  3  4  1  0
  4  5  1  1
  5  6  1  6
  6  7  1  6
  7  8  1  1
  8  9  1  0
  9 10  2  0
 10 11  1  0
 11 12  1  0
 11 13  2  0
 13 14  1  0
 14 15  1  0
 15 16  3  0
 14 17  2  0
  7  3  1  0
 17  9  1  0
M  END
$$$$
