_rank8
     RDKit          3D

 17 18  0  0  0  0  0  0  0  0999 V2000
   20.0015   -2.1198  -12.8583 C   0  0  0  0  0  0  0  0  0  0  0  0
   20.2694   -0.9301  -12.1570 O   0  0  0  0  0  0  0  0  0  0  0  0
   21.1717   -1.2534  -11.1534 C   0  0  2  0  0  0  0  0  0  0  0  0
   20.5301   -1.2215   -9.7838 C   0  0  0  0  0  0  0  0  0  0  0  0
   20.3301    0.2552   -9.5048 C   0  0  0  0  0  0  0  0  0  0  0  0
   21.1920    0.9860  -10.5258 C   0  0  0  0  0  0  0  0  0  0  0  0
   22.1590   -0.0911  -11.0396 C   0  0  1  0  0  0  0  0  0  0  0  0
   23.1794   -0.3445  -10.1553 O   0  0  0  0  0  0  0  0  0  0  0  0
   24.5381   -0.1771  -10.3417 C   0  0  0  0  0  0  0  0  0  0  0  0
   25.0291    0.0103  -11.6080 C   0  0  0  0  0  0  0  0  0  0  0  0
   26.4036    0.1830  -11.8287 C   0  0  0  0  0  0  0  0  0  0  0  0
   26.8716    0.3685  -13.1008 F   0  0  0  0  0  0  0  0  0  0  0  0
   27.2414    0.1584  -10.7351 C   0  0  0  0  0  0  0  0  0  0  0  0
   26.7581   -0.0301   -9.4498 C   0  0  0  0  0  0  0  0  0  0  0  0
   27.6764   -0.0488   -8.3307 C   0  0  0  0  0  0  0  0  0  0  0  0
   28.4182   -0.0535   -7.4433 N   0  0  0  0  0  0  0  0  0  0  0  0
   25.4109   -0.1972   -9.2546 C   0  0  0  0  0  0  0  0  0  0  0  0
  1  2  1  6
  3  2  1  6
  3  4  1  0
  4  5  1  1
  5  6  1  6
  6  7  1  6
  7  8  1  1
  8  9  1  0
  9 10  2  0
 10 11  1  0
 11 12  1  0
 11 13  2  0
 13 14  1  0
 14 15  1  0
 15 16  3  0
 14 17  2  0
  7  3  1  0
 17  9  1  0
M  END
$$$$
