_rank4
     RDKit          3D

 17 18  0  0  0  0  0  0  0  0999 V2000
   19.9505   -2.9610  -11.6940 C   0  0  0  0  0  0  0  0  0  0  0  0
   20.5072   -1.6714  -11.7718 O   0  0  0  0  0  0  0  0  0  0  0  0
   21.3295   -1.5246  -10.6634 C   0  0  2  0  0  0  0  0  0  0  0  0
   20.5515   -1.1164   -9.4319 C   0  0  0  0  0  0  0  0  0  0  0  0
   20.1835    0.3312   -9.6915 C   0  0  0  0  0  0  0  0  0  0  0  0
   21.0708    0.7796  -10.8452 C   0  0  0  0  0  0  0  0  0  0  0  0
   22.1839   -0.2776  -10.8948 C   0  0  1  0  0  0  0  0  0  0  0  0
   23.1286   -0.0907   -9.9149 O   0  0  0  0  0  0  0  0  0  0  0  0
   24.5029   -0.1861  -10.0182 C   0  0  0  0  0  0  0  0  0  0  0  0
   25.0789   -0.3488  -11.2516 C   0  0  0  0  0  0  0  0  0  0  0  0
   26.4714   -0.4488  -11.3882 C   0  0  0  0  0  0  0  0  0  0  0  0
   27.0246   -0.6107  -12.6289 F   0  0  0  0  0  0  0  0  0  0  0  0
   27.2391   -0.3784  -10.2462 C   0  0  0  0  0  0  0  0  0  0  0  0
   26.6695   -0.2141   -8.9932 C   0  0  0  0  0  0  0  0  0  0  0  0
   27.5162   -0.1455   -7.8209 C   0  0  0  0  0  0  0  0  0  0  0  0
   28.2044   -0.0912   -6.8928 N   0  0  0  0  0  0  0  0  0  0  0  0
   25.3061   -0.1184   -8.8805 C   0  0  0  0  0  0  0  0  0  0  0  0
  1  2  1  6
  3  2  1  6
  3  4  1  0
  4  5  1  1
  5  6  1  6
  6  7  1  6
  7  8  1  1
  8  9  1  0
  9 10  2  0
 10 11  1  0
 11 12  1  0
 11 13  2  0
 13 14  1  0
 14 15  1  0
 15 16  3  0
 14 17  2  0
  7  3  1  0
 17  9  1  0
M  END
$$$$
