_rank14
     RDKit          3D

 17 18  0  0  0  0  0  0  0  0999 V2000
   27.4656    0.5621  -13.4554 C   0  0  0  0  0  0  0  0  0  0  0  0
   26.2430    0.0131  -13.8832 O   0  0  0  0  0  0  0  0  0  0  0  0
   25.4703   -0.1741  -12.7457 C   0  0  2  0  0  0  0  0  0  0  0  0
   24.1539   -0.8496  -13.0608 C   0  0  0  0  0  0  0  0  0  0  0  0
   23.3475    0.2246  -13.7639 C   0  0  0  0  0  0  0  0  0  0  0  0
   24.0727    1.5335  -13.4806 C   0  0  0  0  0  0  0  0  0  0  0  0
   24.9890    1.2048  -12.2925 C   0  0  1  0  0  0  0  0  0  0  0  0
   24.3075    1.1650  -11.1002 O   0  0  0  0  0  0  0  0  0  0  0  0
   24.5762    0.3977   -9.9832 C   0  0  0  0  0  0  0  0  0  0  0  0
   23.7185   -0.6136   -9.6349 C   0  0  0  0  0  0  0  0  0  0  0  0
   23.9647   -1.4095   -8.5064 C   0  0  0  0  0  0  0  0  0  0  0  0
   23.0954   -2.4134   -8.1776 F   0  0  0  0  0  0  0  0  0  0  0  0
   25.0928   -1.1428   -7.7616 C   0  0  0  0  0  0  0  0  0  0  0  0
   25.9681   -0.1234   -8.1026 C   0  0  0  0  0  0  0  0  0  0  0  0
   27.1411    0.1202   -7.2900 C   0  0  0  0  0  0  0  0  0  0  0  0
   28.0699    0.3209   -6.6305 N   0  0  0  0  0  0  0  0  0  0  0  0
   25.7098    0.6437   -9.2097 C   0  0  0  0  0  0  0  0  0  0  0  0
  1  2  1  6
  3  2  1  6
  3  4  1  0
  4  5  1  1
  5  6  1  6
  6  7  1  6
  7  8  1  1
  8  9  1  0
  9 10  2  0
 10 11  1  0
 11 12  1  0
 11 13  2  0
 13 14  1  0
 14 15  1  0
 15 16  3  0
 14 17  2  0
  7  3  1  0
 17  9  1  0
M  END
$$$$
