_rank11
     RDKit          3D

 17 18  0  0  0  0  0  0  0  0999 V2000
   22.4445   -2.9343  -12.7177 C   0  0  0  0  0  0  0  0  0  0  0  0
   21.3966   -2.4748  -11.8993 O   0  0  0  0  0  0  0  0  0  0  0  0
   21.9789   -2.0155  -10.7263 C   0  0  2  0  0  0  0  0  0  0  0  0
   20.9592   -1.8250   -9.6252 C   0  0  0  0  0  0  0  0  0  0  0  0
   20.1872   -0.5905  -10.0473 C   0  0  0  0  0  0  0  0  0  0  0  0
   21.0275    0.0672  -11.1340 C   0  0  0  0  0  0  0  0  0  0  0  0
   22.4153   -0.5706  -10.9722 C   0  0  1  0  0  0  0  0  0  0  0  0
   23.1165   -0.0397   -9.9167 O   0  0  0  0  0  0  0  0  0  0  0  0
   24.4630    0.2612   -9.8453 C   0  0  0  0  0  0  0  0  0  0  0  0
   24.9584    1.3199  -10.5617 C   0  0  0  0  0  0  0  0  0  0  0  0
   26.3208    1.6499  -10.5094 C   0  0  0  0  0  0  0  0  0  0  0  0
   26.7934    2.7107  -11.2326 F   0  0  0  0  0  0  0  0  0  0  0  0
   27.1423    0.8778   -9.7173 C   0  0  0  0  0  0  0  0  0  0  0  0
   26.6543   -0.1952   -8.9880 C   0  0  0  0  0  0  0  0  0  0  0  0
   27.5553   -0.9784   -8.1690 C   0  0  0  0  0  0  0  0  0  0  0  0
   28.2861   -1.5952   -7.5183 N   0  0  0  0  0  0  0  0  0  0  0  0
   25.3191   -0.5018   -9.0524 C   0  0  0  0  0  0  0  0  0  0  0  0
  1  2  1  6
  3  2  1  6
  3  4  1  0
  4  5  1  1
  5  6  1  6
  6  7  1  6
  7  8  1  1
  8  9  1  0
  9 10  2  0
 10 11  1  0
 11 12  1  0
 11 13  2  0
 13 14  1  0
 14 15  1  0
 15 16  3  0
 14 17  2  0
  7  3  1  0
 17  9  1  0
M  END
$$$$
