_rank9
     RDKit          3D

 17 18  0  0  0  0  0  0  0  0999 V2000
   19.3621    0.6450   -9.5309 C   0  0  0  0  0  0  0  0  0  0  0  0
   20.0658   -0.5062   -9.9290 O   0  0  0  0  0  0  0  0  0  0  0  0
   21.2250   -0.0686  -10.5541 C   0  0  2  0  0  0  0  0  0  0  0  0
   21.2773   -0.4878  -12.0067 C   0  0  0  0  0  0  0  0  0  0  0  0
   21.5447   -1.9791  -11.9505 C   0  0  0  0  0  0  0  0  0  0  0  0
   22.0024   -2.2604  -10.5255 C   0  0  0  0  0  0  0  0  0  0  0  0
   22.3858   -0.8786   -9.9752 C   0  0  1  0  0  0  0  0  0  0  0  0
   23.6103   -0.4540  -10.4310 O   0  0  0  0  0  0  0  0  0  0  0  0
   24.8437   -0.5792   -9.8213 C   0  0  0  0  0  0  0  0  0  0  0  0
   25.2246   -1.7922   -9.3083 C   0  0  0  0  0  0  0  0  0  0  0  0
   26.4706   -1.9502   -8.6836 C   0  0  0  0  0  0  0  0  0  0  0  0
   26.8302   -3.1698   -8.1788 F   0  0  0  0  0  0  0  0  0  0  0  0
   27.2966   -0.8503   -8.6026 C   0  0  0  0  0  0  0  0  0  0  0  0
   26.9237    0.3816   -9.1172 C   0  0  0  0  0  0  0  0  0  0  0  0
   27.8246    1.5096   -9.0089 C   0  0  0  0  0  0  0  0  0  0  0  0
   28.5557    2.4017   -8.9218 N   0  0  0  0  0  0  0  0  0  0  0  0
   25.7013    0.5158   -9.7242 C   0  0  0  0  0  0  0  0  0  0  0  0
  1  2  1  6
  3  2  1  1
  3  4  1  0
  4  5  1  1
  5  6  1  6
  6  7  1  6
  7  8  1  6
  8  9  1  0
  9 10  2  0
 10 11  1  0
 11 12  1  0
 11 13  2  0
 13 14  1  0
 14 15  1  0
 15 16  3  0
 14 17  2  0
  7  3  1  0
 17  9  1  0
M  END
$$$$
