_rank7
     RDKit          3D

 17 18  0  0  0  0  0  0  0  0999 V2000
   18.7664   -0.9549   -9.8608 C   0  0  0  0  0  0  0  0  0  0  0  0
   19.9744   -1.5922  -10.1976 O   0  0  0  0  0  0  0  0  0  0  0  0
   20.9337   -0.5955  -10.3082 C   0  0  2  0  0  0  0  0  0  0  0  0
   21.0769   -0.1034  -11.7315 C   0  0  0  0  0  0  0  0  0  0  0  0
   21.7818   -1.2401  -12.4453 C   0  0  0  0  0  0  0  0  0  0  0  0
   22.3352   -2.1354  -11.3445 C   0  0  0  0  0  0  0  0  0  0  0  0
   22.2972   -1.2522  -10.0885 C   0  0  1  0  0  0  0  0  0  0  0  0
   23.3266   -0.3428  -10.0558 O   0  0  0  0  0  0  0  0  0  0  0  0
   24.6411   -0.5475   -9.6832 C   0  0  0  0  0  0  0  0  0  0  0  0
   25.1707   -1.8109   -9.7375 C   0  0  0  0  0  0  0  0  0  0  0  0
   26.5021   -2.0498   -9.3657 C   0  0  0  0  0  0  0  0  0  0  0  0
   27.0098   -3.3187   -9.4278 F   0  0  0  0  0  0  0  0  0  0  0  0
   27.2577   -0.9771   -8.9455 C   0  0  0  0  0  0  0  0  0  0  0  0
   26.7346    0.3052   -8.8859 C   0  0  0  0  0  0  0  0  0  0  0  0
   27.5665    1.4020   -8.4379 C   0  0  0  0  0  0  0  0  0  0  0  0
   28.2407    2.2689   -8.0746 N   0  0  0  0  0  0  0  0  0  0  0  0
   25.4307    0.5183   -9.2537 C   0  0  0  0  0  0  0  0  0  0  0  0
  1  2  1  6
  3  2  1  6
  3  4  1  0
  4  5  1  1
  5  6  1  6
  6  7  1  6
  7  8  1  6
  8  9  1  0
  9 10  2  0
 10 11  1  0
 11 12  1  0
 11 13  2  0
 13 14  1  0
 14 15  1  0
 15 16  3  0
 14 17  2  0
  7  3  1  0
 17  9  1  0
M  END
$$$$
