_rank20
     RDKit          3D

 17 18  0  0  0  0  0  0  0  0999 V2000
   24.3384   -2.1670  -13.2153 C   0  0  0  0  0  0  0  0  0  0  0  0
   22.9738   -2.1587  -13.5573 O   0  0  0  0  0  0  0  0  0  0  0  0
   22.2678   -2.3925  -12.3856 C   0  0  2  0  0  0  0  0  0  0  0  0
   20.8373   -2.8017  -12.6591 C   0  0  0  0  0  0  0  0  0  0  0  0
   20.1713   -1.5230  -13.1278 C   0  0  0  0  0  0  0  0  0  0  0  0
   21.1239   -0.3990  -12.7419 C   0  0  0  0  0  0  0  0  0  0  0  0
   22.0585   -1.0393  -11.7047 C   0  0  1  0  0  0  0  0  0  0  0  0
   21.4708   -1.1512  -10.4680 O   0  0  0  0  0  0  0  0  0  0  0  0
   21.7593   -0.4489   -9.3138 C   0  0  0  0  0  0  0  0  0  0  0  0
   23.0526   -0.3917   -8.8622 C   0  0  0  0  0  0  0  0  0  0  0  0
   23.3764    0.3136   -7.6937 C   0  0  0  0  0  0  0  0  0  0  0  0
   24.6737    0.3574   -7.2615 F   0  0  0  0  0  0  0  0  0  0  0  0
   22.3559    0.9450   -7.0167 C   0  0  0  0  0  0  0  0  0  0  0  0
   21.0443    0.8951   -7.4623 C   0  0  0  0  0  0  0  0  0  0  0  0
   20.0047    1.5740   -6.7180 C   0  0  0  0  0  0  0  0  0  0  0  0
   19.1706    2.1240   -6.1351 N   0  0  0  0  0  0  0  0  0  0  0  0
   20.7480    0.2003   -8.6070 C   0  0  0  0  0  0  0  0  0  0  0  0
  1  2  1  6
  3  2  1  6
  3  4  1  0
  4  5  1  1
  5  6  1  6
  6  7  1  6
  7  8  1  1
  8  9  1  0
  9 10  2  0
 10 11  1  0
 11 12  1  0
 11 13  2  0
 13 14  1  0
 14 15  1  0
 15 16  3  0
 14 17  2  0
  7  3  1  0
 17  9  1  0
M  END
$$$$
