_rank19
     RDKit          3D

 17 18  0  0  0  0  0  0  0  0999 V2000
   26.3332    1.7697  -14.2596 C   0  0  0  0  0  0  0  0  0  0  0  0
   25.1201    1.0669  -14.3755 O   0  0  0  0  0  0  0  0  0  0  0  0
   25.1338    0.0838  -13.3960 C   0  0  2  0  0  0  0  0  0  0  0  0
   25.3663   -1.2926  -13.9791 C   0  0  0  0  0  0  0  0  0  0  0  0
   24.0617   -1.6222  -14.6774 C   0  0  0  0  0  0  0  0  0  0  0  0
   23.0474   -0.6171  -14.1478 C   0  0  0  0  0  0  0  0  0  0  0  0
   23.7027   -0.0581  -12.8760 C   0  0  1  0  0  0  0  0  0  0  0  0
   23.6062   -0.9230  -11.8130 O   0  0  0  0  0  0  0  0  0  0  0  0
   23.0759   -0.6864  -10.5594 C   0  0  0  0  0  0  0  0  0  0  0  0
   21.7314   -0.4531  -10.4267 C   0  0  0  0  0  0  0  0  0  0  0  0
   21.1639   -0.2098   -9.1671 C   0  0  0  0  0  0  0  0  0  0  0  0
   19.8198    0.0206   -9.0582 F   0  0  0  0  0  0  0  0  0  0  0  0
   21.9989   -0.2130   -8.0711 C   0  0  0  0  0  0  0  0  0  0  0  0
   23.3598   -0.4476   -8.1913 C   0  0  0  0  0  0  0  0  0  0  0  0
   24.1984   -0.4412   -7.0113 C   0  0  0  0  0  0  0  0  0  0  0  0
   24.8802   -0.4349   -6.0769 N   0  0  0  0  0  0  0  0  0  0  0  0
   23.8956   -0.6834   -9.4316 C   0  0  0  0  0  0  0  0  0  0  0  0
  1  2  1  6
  3  2  1  6
  3  4  1  0
  4  5  1  1
  5  6  1  6
  6  7  1  6
  7  8  1  1
  8  9  1  0
  9 10  2  0
 10 11  1  0
 11 12  1  0
 11 13  2  0
 13 14  1  0
 14 15  1  0
 15 16  3  0
 14 17  2  0
  7  3  1  0
 17  9  1  0
M  END
$$$$
