_rank10
     RDKit          3D

 17 18  0  0  0  0  0  0  0  0999 V2000
   19.8350   -2.0322  -12.6655 C   0  0  0  0  0  0  0  0  0  0  0  0
   20.3155   -0.8383  -12.0975 O   0  0  0  0  0  0  0  0  0  0  0  0
   21.1766   -1.2029  -11.0721 C   0  0  2  0  0  0  0  0  0  0  0  0
   20.5038   -1.1392   -9.7186 C   0  0  0  0  0  0  0  0  0  0  0  0
   20.3672    0.3455   -9.4444 C   0  0  0  0  0  0  0  0  0  0  0  0
   21.2875    1.0337  -10.4439 C   0  0  0  0  0  0  0  0  0  0  0  0
   22.2147   -0.0885  -10.9340 C   0  0  1  0  0  0  0  0  0  0  0  0
   23.2000   -0.3890  -10.0249 O   0  0  0  0  0  0  0  0  0  0  0  0
   24.5656   -0.2239  -10.1534 C   0  0  0  0  0  0  0  0  0  0  0  0
   25.1435   -0.3083  -11.3938 C   0  0  0  0  0  0  0  0  0  0  0  0
   26.5273   -0.1451  -11.5558 C   0  0  0  0  0  0  0  0  0  0  0  0
   27.0826   -0.2334  -12.8029 F   0  0  0  0  0  0  0  0  0  0  0  0
   27.2844    0.1020  -10.4314 C   0  0  0  0  0  0  0  0  0  0  0  0
   26.7129    0.1898   -9.1717 C   0  0  0  0  0  0  0  0  0  0  0  0
   27.5484    0.4510   -8.0186 C   0  0  0  0  0  0  0  0  0  0  0  0
   28.2262    0.6511   -7.1029 N   0  0  0  0  0  0  0  0  0  0  0  0
   25.3581    0.0273   -9.0341 C   0  0  0  0  0  0  0  0  0  0  0  0
  1  2  1  6
  3  2  1  6
  3  4  1  0
  4  5  1  1
  5  6  1  6
  6  7  1  6
  7  8  1  1
  8  9  1  0
  9 10  2  0
 10 11  1  0
 11 12  1  0
 11 13  2  0
 13 14  1  0
 14 15  1  0
 15 16  3  0
 14 17  2  0
  7  3  1  0
 17  9  1  0
M  END
$$$$
