_rank12
     RDKit          3D

 17 18  0  0  0  0  0  0  0  0999 V2000
   26.5029    0.1253  -14.6040 C   0  0  0  0  0  0  0  0  0  0  0  0
   25.9214    1.2276  -13.9517 O   0  0  0  0  0  0  0  0  0  0  0  0
   25.1235    0.7158  -12.9381 C   0  0  2  0  0  0  0  0  0  0  0  0
   23.8594    1.5251  -12.7497 C   0  0  0  0  0  0  0  0  0  0  0  0
   24.3369    2.8082  -12.0985 C   0  0  0  0  0  0  0  0  0  0  0  0
   25.7498    2.5189  -11.6092 C   0  0  0  0  0  0  0  0  0  0  0  0
   25.8420    0.9857  -11.6154 C   0  0  1  0  0  0  0  0  0  0  0  0
   25.2052    0.4179  -10.5385 O   0  0  0  0  0  0  0  0  0  0  0  0
   25.7258    0.1157   -9.2950 C   0  0  0  0  0  0  0  0  0  0  0  0
   27.0379    0.4050   -9.0224 C   0  0  0  0  0  0  0  0  0  0  0  0
   27.5947    0.1100   -7.7691 C   0  0  0  0  0  0  0  0  0  0  0  0
   28.9064    0.4074   -7.5190 F   0  0  0  0  0  0  0  0  0  0  0  0
   26.7827   -0.4780   -6.8240 C   0  0  0  0  0  0  0  0  0  0  0  0
   25.4546   -0.7757   -7.0865 C   0  0  0  0  0  0  0  0  0  0  0  0
   24.6392   -1.3937   -6.0623 C   0  0  0  0  0  0  0  0  0  0  0  0
   23.9994   -1.8946   -5.2391 N   0  0  0  0  0  0  0  0  0  0  0  0
   24.9288   -0.4795   -8.3180 C   0  0  0  0  0  0  0  0  0  0  0  0
  1  2  1  6
  3  2  1  6
  3  4  1  0
  4  5  1  1
  5  6  1  6
  6  7  1  6
  7  8  1  1
  8  9  1  0
  9 10  2  0
 10 11  1  0
 11 12  1  0
 11 13  2  0
 13 14  1  0
 14 15  1  0
 15 16  3  0
 14 17  2  0
  7  3  1  0
 17  9  1  0
M  END
$$$$
