_rank13
     RDKit          3D

 17 18  0  0  0  0  0  0  0  0999 V2000
   28.5351    0.7581  -13.9951 C   0  0  0  0  0  0  0  0  0  0  0  0
   27.3430    1.4535  -13.7225 O   0  0  0  0  0  0  0  0  0  0  0  0
   26.4204    0.5101  -13.2928 C   0  0  2  0  0  0  0  0  0  0  0  0
   25.3445    0.2592  -14.3263 C   0  0  0  0  0  0  0  0  0  0  0  0
   24.4925    1.5124  -14.2831 C   0  0  0  0  0  0  0  0  0  0  0  0
   24.8822    2.2293  -12.9971 C   0  0  0  0  0  0  0  0  0  0  0  0
   25.6030    1.1531  -12.1717 C   0  0  1  0  0  0  0  0  0  0  0  0
   24.7291    0.2742  -11.5790 O   0  0  0  0  0  0  0  0  0  0  0  0
   24.6062   -0.0422  -10.2398 C   0  0  0  0  0  0  0  0  0  0  0  0
   23.4858   -0.6985   -9.7998 C   0  0  0  0  0  0  0  0  0  0  0  0
   23.3325   -1.0332   -8.4462 C   0  0  0  0  0  0  0  0  0  0  0  0
   22.2061   -1.6882   -8.0294 F   0  0  0  0  0  0  0  0  0  0  0  0
   24.3414   -0.6820   -7.5760 C   0  0  0  0  0  0  0  0  0  0  0  0
   25.4792   -0.0184   -8.0076 C   0  0  0  0  0  0  0  0  0  0  0  0
   26.5135    0.3305   -7.0566 C   0  0  0  0  0  0  0  0  0  0  0  0
   27.3360    0.6233   -6.2978 N   0  0  0  0  0  0  0  0  0  0  0  0
   25.6104    0.3000   -9.3351 C   0  0  0  0  0  0  0  0  0  0  0  0
  1  2  1  6
  3  2  1  6
  3  4  1  0
  4  5  1  1
  5  6  1  6
  6  7  1  6
  7  8  1  6
  8  9  1  0
  9 10  2  0
 10 11  1  0
 11 12  1  0
 11 13  2  0
 13 14  1  0
 14 15  1  0
 15 16  3  0
 14 17  2  0
  7  3  1  0
 17  9  1  0
M  END
$$$$
