_rank17
     RDKit          3D

 17 18  0  0  0  0  0  0  0  0999 V2000
   22.6668    0.8265  -14.1558 C   0  0  0  0  0  0  0  0  0  0  0  0
   21.9756   -0.2060  -13.4960 O   0  0  0  0  0  0  0  0  0  0  0  0
   22.9358   -1.0092  -12.8969 C   0  0  2  0  0  0  0  0  0  0  0  0
   22.3896   -2.3743  -12.5411 C   0  0  0  0  0  0  0  0  0  0  0  0
   21.4791   -2.1100  -11.3580 C   0  0  0  0  0  0  0  0  0  0  0  0
   21.8383   -0.7135  -10.8678 C   0  0  0  0  0  0  0  0  0  0  0  0
   23.2065   -0.4324  -11.5068 C   0  0  1  0  0  0  0  0  0  0  0  0
   24.2314   -1.0741  -10.8548 O   0  0  0  0  0  0  0  0  0  0  0  0
   24.8437   -0.7262   -9.6662 C   0  0  0  0  0  0  0  0  0  0  0  0
   24.0812   -0.5372   -8.5425 C   0  0  0  0  0  0  0  0  0  0  0  0
   24.6742   -0.1836   -7.3214 C   0  0  0  0  0  0  0  0  0  0  0  0
   23.8939   -0.0001   -6.2128 F   0  0  0  0  0  0  0  0  0  0  0  0
   26.0433   -0.0329   -7.2881 C   0  0  0  0  0  0  0  0  0  0  0  0
   26.8258   -0.2210   -8.4167 C   0  0  0  0  0  0  0  0  0  0  0  0
   28.2612   -0.0515   -8.3340 C   0  0  0  0  0  0  0  0  0  0  0  0
   29.4095    0.0758   -8.2799 N   0  0  0  0  0  0  0  0  0  0  0  0
   26.2272   -0.5665   -9.6012 C   0  0  0  0  0  0  0  0  0  0  0  0
  1  2  1  6
  3  2  1  1
  3  4  1  0
  4  5  1  1
  5  6  1  6
  6  7  1  6
  7  8  1  1
  8  9  1  0
  9 10  2  0
 10 11  1  0
 11 12  1  0
 11 13  2  0
 13 14  1  0
 14 15  1  0
 15 16  3  0
 14 17  2  0
  7  3  1  0
 17  9  1  0
M  END
$$$$
