_rank13
     RDKit          3D

 17 18  0  0  0  0  0  0  0  0999 V2000
   21.2722   -2.4233  -11.1366 C   0  0  0  0  0  0  0  0  0  0  0  0
   21.5712   -0.6606  -11.1542 S   0  0  1  0  0  6  0  0  0  0  0  0
   20.8070   -0.0874  -12.3016 O   0  0  0  0  0  0  0  0  0  0  0  0
   21.0235   -0.1695   -9.8169 O   0  0  0  0  0  0  0  0  0  0  0  0
   23.2736   -0.3270  -11.3177 C   0  0  0  0  0  0  0  0  0  0  0  0
   23.7811    0.0493  -12.5572 C   0  0  0  0  0  0  0  0  0  0  0  0
   25.1154    0.3173  -12.7432 C   0  0  0  0  0  0  0  0  0  0  0  0
   25.9622    0.2093  -11.6767 C   0  0  0  0  0  0  0  0  0  0  0  0
   25.4633   -0.1602  -10.4593 C   0  0  0  0  0  0  0  0  0  0  0  0
   24.1093   -0.4359  -10.2541 C   0  0  0  0  0  0  0  0  0  0  0  0
   23.6901   -0.8142   -8.9097 C   0  0  1  0  0  0  0  0  0  0  0  0
   23.4093   -2.1366   -8.7008 O   0  0  0  0  0  0  0  0  0  0  0  0
   24.7017   -0.4253   -7.8948 C   0  0  0  0  0  0  0  0  0  0  0  0
   25.4879   -0.1396   -7.0945 N   0  0  0  0  0  0  0  0  0  0  0  0
   27.2397    0.5357  -12.1522 O   0  0  0  0  0  0  0  0  0  0  0  0
   27.0723    1.2555  -13.3832 C   0  0  0  0  0  0  0  0  0  0  0  0
   25.8584    0.7040  -13.8589 O   0  0  0  0  0  0  0  0  0  0  0  0
  1  2  1  6
  2  3  2  0
  2  4  2  0
  2  5  1  6
  5  6  2  0
  6  7  1  0
  7  8  2  0
  8  9  1  0
  9 10  2  0
 10 11  1  0
 11 12  1  6
 11 13  1  0
 13 14  3  0
  8 15  1  0
 16 15  1  1
 16 17  1  0
 10  5  1  0
 17  7  1  0
M  END
$$$$
