_rank6
     RDKit          3D

 17 18  0  0  0  0  0  0  0  0999 V2000
   27.9198   -1.5711   -8.3234 C   0  0  0  0  0  0  0  0  0  0  0  0
   26.6310   -0.3334   -8.3897 S   0  0  1  0  0  6  0  0  0  0  0  0
   25.4611   -0.8628   -7.6280 O   0  0  0  0  0  0  0  0  0  0  0  0
   27.2400    0.8856   -7.7023 O   0  0  0  0  0  0  0  0  0  0  0  0
   26.1901    0.0077  -10.0406 C   0  0  0  0  0  0  0  0  0  0  0  0
   27.1632    0.4493  -10.9313 C   0  0  0  0  0  0  0  0  0  0  0  0
   26.8690    0.7389  -12.2414 C   0  0  0  0  0  0  0  0  0  0  0  0
   25.5825    0.5868  -12.6751 C   0  0  0  0  0  0  0  0  0  0  0  0
   24.6270    0.1529  -11.7998 C   0  0  0  0  0  0  0  0  0  0  0  0
   24.9103   -0.1458  -10.4649 C   0  0  0  0  0  0  0  0  0  0  0  0
   23.8115   -0.6078   -9.6251 C   0  0  1  0  0  0  0  0  0  0  0  0
   22.9738    0.3504   -9.1237 O   0  0  0  0  0  0  0  0  0  0  0  0
   22.9587   -1.5923  -10.3379 C   0  0  0  0  0  0  0  0  0  0  0  0
   22.2789   -2.3558  -10.8811 N   0  0  0  0  0  0  0  0  0  0  0  0
   25.5769    0.9485  -14.0293 O   0  0  0  0  0  0  0  0  0  0  0  0
   26.9329    0.8911  -14.4979 C   0  0  0  0  0  0  0  0  0  0  0  0
   27.6448    1.1873  -13.3108 O   0  0  0  0  0  0  0  0  0  0  0  0
  1  2  1  6
  2  3  2  0
  2  4  2  0
  2  5  1  6
  5  6  2  0
  6  7  1  0
  7  8  2  0
  8  9  1  0
  9 10  2  0
 10 11  1  0
 11 12  1  6
 11 13  1  0
 13 14  3  0
  8 15  1  0
 16 15  1  1
 16 17  1  0
 10  5  1  0
 17  7  1  0
M  END
$$$$
