_rank2
     RDKit          3D

 17 18  0  0  0  0  0  0  0  0999 V2000
   26.2408    1.1245  -14.0426 C   0  0  0  0  0  0  0  0  0  0  0  0
   26.7860    0.7705  -12.3769 S   0  0  1  0  0  6  0  0  0  0  0  0
   27.9562   -0.1516  -12.4744 O   0  0  0  0  0  0  0  0  0  0  0  0
   27.1911    2.1299  -11.8134 O   0  0  0  0  0  0  0  0  0  0  0  0
   25.5018    0.0430  -11.4508 C   0  0  0  0  0  0  0  0  0  0  0  0
   24.2655   -0.1761  -12.0499 C   0  0  0  0  0  0  0  0  0  0  0  0
   23.2174   -0.7399  -11.3642 C   0  0  0  0  0  0  0  0  0  0  0  0
   23.4011   -1.0930  -10.0574 C   0  0  0  0  0  0  0  0  0  0  0  0
   24.6157   -0.8777   -9.4693 C   0  0  0  0  0  0  0  0  0  0  0  0
   25.6911   -0.3057  -10.1530 C   0  0  0  0  0  0  0  0  0  0  0  0
   26.9423   -0.1307   -9.4249 C   0  0  1  0  0  0  0  0  0  0  0  0
   27.0371    0.9697   -8.6178 O   0  0  0  0  0  0  0  0  0  0  0  0
   27.2485   -1.3112   -8.5780 C   0  0  0  0  0  0  0  0  0  0  0  0
   27.4757   -2.2427   -7.9293 N   0  0  0  0  0  0  0  0  0  0  0  0
   22.1843   -1.6340   -9.6197 O   0  0  0  0  0  0  0  0  0  0  0  0
   21.4294   -1.9996  -10.7850 C   0  0  0  0  0  0  0  0  0  0  0  0
   21.9083   -1.0578  -11.7271 O   0  0  0  0  0  0  0  0  0  0  0  0
  1  2  1  6
  2  3  2  0
  2  4  2  0
  2  5  1  1
  5  6  2  0
  6  7  1  0
  7  8  2  0
  8  9  1  0
  9 10  2  0
 10 11  1  0
 11 12  1  1
 11 13  1  0
 13 14  3  0
  8 15  1  0
 16 15  1  1
 16 17  1  0
 10  5  1  0
 17  7  1  0
M  END
$$$$
