_rank14
     RDKit          3D

 17 18  0  0  0  0  0  0  0  0999 V2000
   22.8479   -2.2434  -10.1810 C   0  0  0  0  0  0  0  0  0  0  0  0
   23.0348   -0.4662  -10.1200 S   0  0  1  0  0  6  0  0  0  0  0  0
   21.8496    0.1332  -10.8020 O   0  0  0  0  0  0  0  0  0  0  0  0
   23.0476   -0.1370   -8.6296 O   0  0  0  0  0  0  0  0  0  0  0  0
   24.5119    0.0243  -10.9034 C   0  0  0  0  0  0  0  0  0  0  0  0
   24.4663    0.5125  -12.2053 C   0  0  0  0  0  0  0  0  0  0  0  0
   25.6008    0.9067  -12.8719 C   0  0  0  0  0  0  0  0  0  0  0  0
   26.8044    0.8139  -12.2323 C   0  0  0  0  0  0  0  0  0  0  0  0
   26.8487    0.3344  -10.9534 C   0  0  0  0  0  0  0  0  0  0  0  0
   25.7042   -0.0702  -10.2623 C   0  0  0  0  0  0  0  0  0  0  0  0
   25.8722   -0.5587   -8.8987 C   0  0  1  0  0  0  0  0  0  0  0  0
   25.6511   -1.8924   -8.6900 O   0  0  0  0  0  0  0  0  0  0  0  0
   27.2311   -0.2629   -8.3784 C   0  0  0  0  0  0  0  0  0  0  0  0
   28.2984   -0.0431   -7.9875 N   0  0  0  0  0  0  0  0  0  0  0  0
   27.7692    1.2773  -13.1374 O   0  0  0  0  0  0  0  0  0  0  0  0
   27.0878    2.0475  -14.1393 C   0  0  0  0  0  0  0  0  0  0  0  0
   25.8194    1.4191  -14.1509 O   0  0  0  0  0  0  0  0  0  0  0  0
  1  2  1  6
  2  3  2  0
  2  4  2  0
  2  5  1  6
  5  6  2  0
  6  7  1  0
  7  8  2  0
  8  9  1  0
  9 10  2  0
 10 11  1  0
 11 12  1  6
 11 13  1  0
 13 14  3  0
  8 15  1  0
 16 15  1  1
 16 17  1  0
 10  5  1  0
 17  7  1  0
M  END
$$$$
