_rank1
     RDKit          3D

 17 18  0  0  0  0  0  0  0  0999 V2000
   27.8389    1.1239   -8.8169 C   0  0  0  0  0  0  0  0  0  0  0  0
   26.9055   -0.3955   -8.6848 S   0  0  1  0  0  6  0  0  0  0  0  0
   27.8042   -1.5119   -9.1033 O   0  0  0  0  0  0  0  0  0  0  0  0
   26.5460   -0.4924   -7.2047 O   0  0  0  0  0  0  0  0  0  0  0  0
   25.4855   -0.3347   -9.6928 C   0  0  0  0  0  0  0  0  0  0  0  0
   24.2517   -0.6924   -9.1589 C   0  0  0  0  0  0  0  0  0  0  0  0
   23.1023   -0.6689   -9.9106 C   0  0  0  0  0  0  0  0  0  0  0  0
   23.1802   -0.2823  -11.2185 C   0  0  0  0  0  0  0  0  0  0  0  0
   24.3924    0.0692  -11.7425 C   0  0  0  0  0  0  0  0  0  0  0  0
   25.5699    0.0506  -10.9913 C   0  0  0  0  0  0  0  0  0  0  0  0
   26.8044    0.4533  -11.6548 C   0  0  1  0  0  0  0  0  0  0  0  0
   27.8488   -0.4285  -11.6013 O   0  0  0  0  0  0  0  0  0  0  0  0
   26.5757    0.7605  -13.0893 C   0  0  0  0  0  0  0  0  0  0  0  0
   26.3988    1.0195  -14.2037 N   0  0  0  0  0  0  0  0  0  0  0  0
   21.8769   -0.3532  -11.7295 O   0  0  0  0  0  0  0  0  0  0  0  0
   20.9742   -0.3578  -10.6131 C   0  0  0  0  0  0  0  0  0  0  0  0
   21.7723   -0.9735   -9.6192 O   0  0  0  0  0  0  0  0  0  0  0  0
  1  2  1  6
  2  3  2  0
  2  4  2  0
  2  5  1  6
  5  6  2  0
  6  7  1  0
  7  8  2  0
  8  9  1  0
  9 10  2  0
 10 11  1  0
 11 12  1  6
 11 13  1  0
 13 14  3  0
  8 15  1  0
 16 15  1  1
 16 17  1  0
 10  5  1  0
 17  7  1  0
M  END
$$$$
