_rank19
     RDKit          3D

 17 18  0  0  0  0  0  0  0  0999 V2000
   26.2525   -0.3304  -11.0063 C   0  0  0  0  0  0  0  0  0  0  0  0
   25.4318   -0.1732   -9.4256 S   0  0  1  0  0  6  0  0  0  0  0  0
   25.6484   -1.4478   -8.6788 O   0  0  0  0  0  0  0  0  0  0  0  0
   26.1364    0.9986   -8.7472 O   0  0  0  0  0  0  0  0  0  0  0  0
   23.7304    0.1335   -9.6435 C   0  0  0  0  0  0  0  0  0  0  0  0
   23.2087    1.3749   -9.2942 C   0  0  0  0  0  0  0  0  0  0  0  0
   21.8745    1.6673   -9.4391 C   0  0  0  0  0  0  0  0  0  0  0  0
   21.0421    0.7074   -9.9410 C   0  0  0  0  0  0  0  0  0  0  0  0
   21.5550   -0.5119  -10.2842 C   0  0  0  0  0  0  0  0  0  0  0  0
   22.9091   -0.8245  -10.1429 C   0  0  0  0  0  0  0  0  0  0  0  0
   23.3441   -2.1557  -10.5489 C   0  0  1  0  0  0  0  0  0  0  0  0
   24.0195   -2.8945   -9.6166 O   0  0  0  0  0  0  0  0  0  0  0  0
   22.2011   -2.9853  -11.0071 C   0  0  0  0  0  0  0  0  0  0  0  0
   21.3072   -3.6384  -11.3458 N   0  0  0  0  0  0  0  0  0  0  0  0
   19.7610    1.2751   -9.9768 O   0  0  0  0  0  0  0  0  0  0  0  0
   19.9175    2.7007   -9.9099 C   0  0  0  0  0  0  0  0  0  0  0  0
   21.1192    2.8089   -9.1695 O   0  0  0  0  0  0  0  0  0  0  0  0
  1  2  1  6
  2  3  2  0
  2  4  2  0
  2  5  1  6
  5  6  2  0
  6  7  1  0
  7  8  2  0
  8  9  1  0
  9 10  2  0
 10 11  1  0
 11 12  1  1
 11 13  1  0
 13 14  3  0
  8 15  1  0
 16 15  1  1
 16 17  1  0
 10  5  1  0
 17  7  1  0
M  END
$$$$
