_rank8
     RDKit          3D

 17 18  0  0  0  0  0  0  0  0999 V2000
   26.2574   -0.6502  -13.6823 C   0  0  0  0  0  0  0  0  0  0  0  0
   26.3865    0.4132  -12.2506 S   0  0  1  0  0  6  0  0  0  0  0  0
   27.6765    0.0944  -11.5699 O   0  0  0  0  0  0  0  0  0  0  0  0
   26.3932    1.8264  -12.8271 O   0  0  0  0  0  0  0  0  0  0  0  0
   25.0406    0.1603  -11.1732 C   0  0  0  0  0  0  0  0  0  0  0  0
   23.7453    0.1791  -11.6804 C   0  0  0  0  0  0  0  0  0  0  0  0
   22.6486   -0.0079  -10.8748 C   0  0  0  0  0  0  0  0  0  0  0  0
   22.8426   -0.2177   -9.5389 C   0  0  0  0  0  0  0  0  0  0  0  0
   24.1152   -0.2362   -9.0411 C   0  0  0  0  0  0  0  0  0  0  0  0
   25.2404   -0.0479   -9.8472 C   0  0  0  0  0  0  0  0  0  0  0  0
   26.5495   -0.0954   -9.2066 C   0  0  1  0  0  0  0  0  0  0  0  0
   27.3320    1.0209   -9.3198 O   0  0  0  0  0  0  0  0  0  0  0  0
   26.4351   -0.3935   -7.7565 C   0  0  0  0  0  0  0  0  0  0  0  0
   26.3541   -0.6437   -6.6291 N   0  0  0  0  0  0  0  0  0  0  0  0
   21.5690   -0.3738   -8.9747 O   0  0  0  0  0  0  0  0  0  0  0  0
   20.6601   -0.6916  -10.0397 C   0  0  0  0  0  0  0  0  0  0  0  0
   21.2774   -0.0341  -11.1308 O   0  0  0  0  0  0  0  0  0  0  0  0
  1  2  1  6
  2  3  2  0
  2  4  2  0
  2  5  1  1
  5  6  2  0
  6  7  1  0
  7  8  2  0
  8  9  1  0
  9 10  2  0
 10 11  1  0
 11 12  1  1
 11 13  1  0
 13 14  3  0
  8 15  1  0
 16 15  1  1
 16 17  1  0
 10  5  1  0
 17  7  1  0
M  END
$$$$
