_rank16
     RDKit          3D

 17 18  0  0  0  0  0  0  0  0999 V2000
   20.6614   -2.3791  -11.1200 C   0  0  0  0  0  0  0  0  0  0  0  0
   21.3009   -0.7534  -11.5007 S   0  0  1  0  0  6  0  0  0  0  0  0
   21.0067   -0.4810  -12.9389 O   0  0  0  0  0  0  0  0  0  0  0  0
   20.5216    0.1851  -10.5834 O   0  0  0  0  0  0  0  0  0  0  0  0
   23.0150   -0.6797  -11.1962 C   0  0  0  0  0  0  0  0  0  0  0  0
   23.8849   -0.4013  -12.2455 C   0  0  0  0  0  0  0  0  0  0  0  0
   25.2448   -0.3379  -12.0625 C   0  0  0  0  0  0  0  0  0  0  0  0
   25.7503   -0.5555  -10.8121 C   0  0  0  0  0  0  0  0  0  0  0  0
   24.8954   -0.8288   -9.7816 C   0  0  0  0  0  0  0  0  0  0  0  0
   23.5105   -0.8966   -9.9516 C   0  0  0  0  0  0  0  0  0  0  0  0
   22.6963   -1.1887   -8.7778 C   0  0  1  0  0  0  0  0  0  0  0  0
   22.4452   -2.5073   -8.5144 O   0  0  0  0  0  0  0  0  0  0  0  0
   23.2909   -0.6111   -7.5459 C   0  0  0  0  0  0  0  0  0  0  0  0
   23.7564   -0.1434   -6.5947 N   0  0  0  0  0  0  0  0  0  0  0  0
   27.1421   -0.4302  -10.9216 O   0  0  0  0  0  0  0  0  0  0  0  0
   27.4176    0.2887  -12.1336 C   0  0  0  0  0  0  0  0  0  0  0  0
   26.3074   -0.0825  -12.9296 O   0  0  0  0  0  0  0  0  0  0  0  0
  1  2  1  6
  2  3  2  0
  2  4  2  0
  2  5  1  6
  5  6  2  0
  6  7  1  0
  7  8  2  0
  8  9  1  0
  9 10  2  0
 10 11  1  0
 11 12  1  1
 11 13  1  0
 13 14  3  0
  8 15  1  0
 16 15  1  1
 16 17  1  0
 10  5  1  0
 17  7  1  0
M  END
$$$$
