_rank15
     RDKit          3D

 17 18  0  0  0  0  0  0  0  0999 V2000
   28.3850   -1.6720   -9.0047 C   0  0  0  0  0  0  0  0  0  0  0  0
   27.1726   -0.4340   -8.5638 S   0  0  1  0  0  6  0  0  0  0  0  0
   26.3209   -1.0064   -7.4794 O   0  0  0  0  0  0  0  0  0  0  0  0
   28.0005    0.7453   -8.0604 O   0  0  0  0  0  0  0  0  0  0  0  0
   26.2043   -0.0013   -9.9464 C   0  0  0  0  0  0  0  0  0  0  0  0
   26.8233    0.5130  -11.0811 C   0  0  0  0  0  0  0  0  0  0  0  0
   26.1074    0.8762  -12.1957 C   0  0  0  0  0  0  0  0  0  0  0  0
   24.7497    0.7255  -12.1825 C   0  0  0  0  0  0  0  0  0  0  0  0
   24.1421    0.2201  -11.0677 C   0  0  0  0  0  0  0  0  0  0  0  0
   24.8560   -0.1539   -9.9268 C   0  0  0  0  0  0  0  0  0  0  0  0
   24.1016   -0.6879   -8.7990 C   0  0  1  0  0  0  0  0  0  0  0  0
   23.8082    0.1830   -7.7858 O   0  0  0  0  0  0  0  0  0  0  0  0
   22.8144   -1.2833   -9.2387 C   0  0  0  0  0  0  0  0  0  0  0  0
   21.8078   -1.7319   -9.5933 N   0  0  0  0  0  0  0  0  0  0  0  0
   24.2910    1.1691  -13.4306 O   0  0  0  0  0  0  0  0  0  0  0  0
   25.4112    1.1672  -14.3287 C   0  0  0  0  0  0  0  0  0  0  0  0
   26.4805    1.4043  -13.4319 O   0  0  0  0  0  0  0  0  0  0  0  0
  1  2  1  6
  2  3  2  0
  2  4  2  0
  2  5  1  6
  5  6  2  0
  6  7  1  0
  7  8  2  0
  8  9  1  0
  9 10  2  0
 10 11  1  0
 11 12  1  1
 11 13  1  0
 13 14  3  0
  8 15  1  0
 16 15  1  1
 16 17  1  0
 10  5  1  0
 17  7  1  0
M  END
$$$$
