_rank18
     RDKit          3D

 17 18  0  0  0  0  0  0  0  0999 V2000
   20.6405    0.4341  -11.0959 C   0  0  0  0  0  0  0  0  0  0  0  0
   21.7937   -0.7736  -11.7351 S   0  0  1  0  0  6  0  0  0  0  0  0
   21.1445   -2.1139  -11.6289 O   0  0  0  0  0  0  0  0  0  0  0  0
   22.0007   -0.3668  -13.1915 O   0  0  0  0  0  0  0  0  0  0  0  0
   23.2852   -0.7367  -10.8348 C   0  0  0  0  0  0  0  0  0  0  0  0
   24.4901   -0.5837  -11.5131 C   0  0  0  0  0  0  0  0  0  0  0  0
   25.6946   -0.5546  -10.8535 C   0  0  0  0  0  0  0  0  0  0  0  0
   25.7022   -0.6801   -9.4933 C   0  0  0  0  0  0  0  0  0  0  0  0
   24.5183   -0.8303   -8.8273 C   0  0  0  0  0  0  0  0  0  0  0  0
   23.2855   -0.8617   -9.4835 C   0  0  0  0  0  0  0  0  0  0  0  0
   22.0869   -1.0195   -8.6684 C   0  0  1  0  0  0  0  0  0  0  0  0
   21.6339   -2.2963   -8.4789 O   0  0  0  0  0  0  0  0  0  0  0  0
   22.2634   -0.4228   -7.3202 C   0  0  0  0  0  0  0  0  0  0  0  0
   22.4068    0.0594   -6.2776 N   0  0  0  0  0  0  0  0  0  0  0  0
   27.0455   -0.6162   -9.0982 O   0  0  0  0  0  0  0  0  0  0  0  0
   27.7846   -0.0171  -10.1736 C   0  0  0  0  0  0  0  0  0  0  0  0
   27.0121   -0.4155  -11.2909 O   0  0  0  0  0  0  0  0  0  0  0  0
  1  2  1  6
  2  3  2  0
  2  4  2  0
  2  5  1  1
  5  6  2  0
  6  7  1  0
  7  8  2  0
  8  9  1  0
  9 10  2  0
 10 11  1  0
 11 12  1  1
 11 13  1  0
 13 14  3  0
  8 15  1  0
 16 15  1  1
 16 17  1  0
 10  5  1  0
 17  7  1  0
M  END
$$$$
