_rank17
     RDKit          3D

 17 18  0  0  0  0  0  0  0  0999 V2000
   22.1613    1.2087   -7.6192 C   0  0  0  0  0  0  0  0  0  0  0  0
   21.8190    0.4427   -9.1981 S   0  0  1  0  0  6  0  0  0  0  0  0
   20.7140   -0.5396   -8.9899 O   0  0  0  0  0  0  0  0  0  0  0  0
   21.3783    1.5981  -10.0927 O   0  0  0  0  0  0  0  0  0  0  0  0
   23.2413   -0.3499   -9.8186 C   0  0  0  0  0  0  0  0  0  0  0  0
   24.4975    0.1714   -9.5262 C   0  0  0  0  0  0  0  0  0  0  0  0
   25.6505   -0.4095   -9.9950 C   0  0  0  0  0  0  0  0  0  0  0  0
   25.5535   -1.5306  -10.7695 C   0  0  0  0  0  0  0  0  0  0  0  0
   24.3193   -2.0425  -11.0564 C   0  0  0  0  0  0  0  0  0  0  0  0
   23.1378   -1.4635  -10.5872 C   0  0  0  0  0  0  0  0  0  0  0  0
   21.8783   -2.1015  -10.9516 C   0  0  1  0  0  0  0  0  0  0  0  0
   21.0694   -1.4186  -11.8179 O   0  0  0  0  0  0  0  0  0  0  0  0
   22.1001   -3.4459  -11.5415 C   0  0  0  0  0  0  0  0  0  0  0  0
   22.2866   -4.4978  -11.9874 N   0  0  0  0  0  0  0  0  0  0  0  0
   26.8656   -1.8980  -11.0986 O   0  0  0  0  0  0  0  0  0  0  0  0
   27.7429   -1.2541  -10.1620 C   0  0  0  0  0  0  0  0  0  0  0  0
   27.0006   -0.0902   -9.8485 O   0  0  0  0  0  0  0  0  0  0  0  0
  1  2  1  6
  2  3  2  0
  2  4  2  0
  2  5  1  6
  5  6  2  0
  6  7  1  0
  7  8  2  0
  8  9  1  0
  9 10  2  0
 10 11  1  0
 11 12  1  6
 11 13  1  0
 13 14  3  0
  8 15  1  0
 16 15  1  1
 16 17  1  0
 10  5  1  0
 17  7  1  0
M  END
$$$$
