_rank8
     RDKit          3D

 19 20  0  0  0  0  0  0  0  0999 V2000
   27.5576   -1.7658  -10.9720 C   0  0  0  0  0  0  0  0  0  0  0  0
   27.4446   -0.4754  -10.2059 C   0  0  1  0  0  0  0  0  0  0  0  0
   28.4367   -0.4094   -9.1111 C   0  0  0  0  0  0  0  0  0  0  0  0
   27.5077    0.7775  -11.0596 C   0  0  0  0  0  0  0  0  0  0  0  0
   26.5598    1.3749  -10.0177 C   0  0  0  0  0  0  0  0  0  0  0  0
   26.0383   -0.0730   -9.8301 C   0  0  1  0  0  0  0  0  0  0  0  0
   25.0888   -0.3002  -10.8328 O   0  0  0  0  0  0  0  0  0  0  0  0
   23.7351   -0.1824  -10.6558 C   0  0  0  0  0  0  0  0  0  0  0  0
   23.0268    0.9924  -10.5303 C   0  0  0  0  0  0  0  0  0  0  0  0
   21.6378    0.9856  -10.3545 C   0  0  0  0  0  0  0  0  0  0  0  0
   20.9840    2.1759  -10.2349 F   0  0  0  0  0  0  0  0  0  0  0  0
   20.9148   -0.1839  -10.2988 C   0  0  0  0  0  0  0  0  0  0  0  0
   21.6147   -1.3615  -10.4241 C   0  0  0  0  0  0  0  0  0  0  0  0
   20.8791   -2.5895  -10.3692 C   0  0  0  0  0  0  0  0  0  0  0  0
   20.2854   -3.6044  -10.3151 N   0  0  0  0  0  0  0  0  0  0  0  0
   22.9676   -1.3529  -10.5955 C   0  0  0  0  0  0  0  0  0  0  0  0
   25.6750   -0.3680   -8.4503 C   0  0  0  0  0  0  0  0  0  0  0  0
   25.8489    0.5496   -7.5805 O   0  0  0  0  0  0  0  0  0  0  0  0
   25.1513   -1.5476   -7.9568 O   0  0  0  0  0  0  0  0  0  0  0  0
  2  1  1  6
  3  2  1  1
  2  4  1  0
  4  5  1  6
  5  6  1  1
  6  7  1  6
  7  8  1  0
  8  9  2  0
  9 10  1  0
 10 11  1  0
 10 12  2  0
 12 13  1  0
 13 14  1  0
 14 15  3  0
 13 16  2  0
  6 17  1  0
 17 18  2  0
 17 19  1  0
  6  2  1  0
 16  8  1  0
M  END
$$$$
