_rank17
     RDKit          3D

 19 20  0  0  0  0  0  0  0  0999 V2000
   21.6678    0.0958  -12.8743 C   0  0  0  0  0  0  0  0  0  0  0  0
   21.3530   -0.9598  -11.8491 C   0  0  1  0  0  0  0  0  0  0  0  0
   19.9586   -0.8469  -11.3691 C   0  0  0  0  0  0  0  0  0  0  0  0
   21.6528   -2.3810  -12.2883 C   0  0  0  0  0  0  0  0  0  0  0  0
   21.9689   -2.6293  -10.8120 C   0  0  0  0  0  0  0  0  0  0  0  0
   22.3958   -1.1394  -10.7715 C   0  0  1  0  0  0  0  0  0  0  0  0
   23.7153   -1.0781  -11.2337 O   0  0  0  0  0  0  0  0  0  0  0  0
   24.8003   -0.8123  -10.4401 C   0  0  0  0  0  0  0  0  0  0  0  0
   24.7697   -0.3933   -9.1281 C   0  0  0  0  0  0  0  0  0  0  0  0
   25.9513   -0.1546   -8.4161 C   0  0  0  0  0  0  0  0  0  0  0  0
   25.8663    0.2593   -7.1200 F   0  0  0  0  0  0  0  0  0  0  0  0
   27.1930   -0.3247   -8.9844 C   0  0  0  0  0  0  0  0  0  0  0  0
   27.2322   -0.7437  -10.2941 C   0  0  0  0  0  0  0  0  0  0  0  0
   28.5159   -0.9269  -10.9029 C   0  0  0  0  0  0  0  0  0  0  0  0
   29.5721   -1.0624  -11.4043 N   0  0  0  0  0  0  0  0  0  0  0  0
   26.0801   -0.9760  -10.9860 C   0  0  0  0  0  0  0  0  0  0  0  0
   22.0728   -0.4937   -9.5061 C   0  0  0  0  0  0  0  0  0  0  0  0
   21.9989   -1.2286   -8.4653 O   0  0  0  0  0  0  0  0  0  0  0  0
   21.8323    0.8497   -9.2896 O   0  0  0  0  0  0  0  0  0  0  0  0
  2  1  1  6
  3  2  1  1
  2  4  1  0
  4  5  1  6
  5  6  1  1
  6  7  1  6
  7  8  1  0
  8  9  2  0
  9 10  1  0
 10 11  1  0
 10 12  2  0
 12 13  1  0
 13 14  1  0
 14 15  3  0
 13 16  2  0
  6 17  1  0
 17 18  2  0
 17 19  1  0
  6  2  1  0
 16  8  1  0
M  END
$$$$
