_rank3
     RDKit          3D

 19 20  0  0  0  0  0  0  0  0999 V2000
   25.7120   -0.7443  -12.1019 C   0  0  0  0  0  0  0  0  0  0  0  0
   26.4634   -0.1494  -10.9416 C   0  0  1  0  0  0  0  0  0  0  0  0
   27.6763   -0.9344  -10.6250 C   0  0  0  0  0  0  0  0  0  0  0  0
   26.8040    1.3215  -11.0927 C   0  0  0  0  0  0  0  0  0  0  0  0
   26.6419    1.3787   -9.5724 C   0  0  0  0  0  0  0  0  0  0  0  0
   25.6124    0.2339   -9.7543 C   0  0  1  0  0  0  0  0  0  0  0  0
   24.3918    0.8296  -10.0914 O   0  0  0  0  0  0  0  0  0  0  0  0
   23.1828    0.1851  -10.0603 C   0  0  0  0  0  0  0  0  0  0  0  0
   22.9809   -1.1760  -10.1253 C   0  0  0  0  0  0  0  0  0  0  0  0
   21.6915   -1.7199  -10.0821 C   0  0  0  0  0  0  0  0  0  0  0  0
   21.5459   -3.0737  -10.1504 F   0  0  0  0  0  0  0  0  0  0  0  0
   20.5696   -0.9306   -9.9731 C   0  0  0  0  0  0  0  0  0  0  0  0
   20.7628    0.4298   -9.9069 C   0  0  0  0  0  0  0  0  0  0  0  0
   19.6067    1.2679   -9.7927 C   0  0  0  0  0  0  0  0  0  0  0  0
   18.6547    1.9557   -9.7139 N   0  0  0  0  0  0  0  0  0  0  0  0
   22.0195    0.9578   -9.9489 C   0  0  0  0  0  0  0  0  0  0  0  0
   25.6369   -0.7269   -8.6593 C   0  0  0  0  0  0  0  0  0  0  0  0
   24.9520   -0.4579   -7.6166 O   0  0  0  0  0  0  0  0  0  0  0  0
   26.3267   -1.9232   -8.6112 O   0  0  0  0  0  0  0  0  0  0  0  0
  2  1  1  6
  3  2  1  1
  2  4  1  0
  4  5  1  6
  5  6  1  1
  6  7  1  6
  7  8  1  0
  8  9  2  0
  9 10  1  0
 10 11  1  0
 10 12  2  0
 12 13  1  0
 13 14  1  0
 14 15  3  0
 13 16  2  0
  6 17  1  0
 17 18  2  0
 17 19  1  0
  6  2  1  0
 16  8  1  0
M  END
$$$$
