_rank4
     RDKit          3D

 19 20  0  0  0  0  0  0  0  0999 V2000
   26.5663   -0.7191  -12.0914 C   0  0  0  0  0  0  0  0  0  0  0  0
   26.8979    0.0074  -10.8158 C   0  0  1  0  0  0  0  0  0  0  0  0
   28.0518   -0.6107  -10.1274 C   0  0  0  0  0  0  0  0  0  0  0  0
   27.1078    1.5019  -10.9725 C   0  0  0  0  0  0  0  0  0  0  0  0
   26.5247    1.5974   -9.5612 C   0  0  0  0  0  0  0  0  0  0  0  0
   25.7147    0.3292   -9.9342 C   0  0  1  0  0  0  0  0  0  0  0  0
   24.5793    0.7579  -10.6311 O   0  0  0  0  0  0  0  0  0  0  0  0
   23.3357    0.1971  -10.5013 C   0  0  0  0  0  0  0  0  0  0  0  0
   23.0450   -1.1492  -10.4786 C   0  0  0  0  0  0  0  0  0  0  0  0
   21.7283   -1.6038  -10.3383 C   0  0  0  0  0  0  0  0  0  0  0  0
   21.4940   -2.9467  -10.3223 F   0  0  0  0  0  0  0  0  0  0  0  0
   20.6660   -0.7374  -10.2167 C   0  0  0  0  0  0  0  0  0  0  0  0
   20.9480    0.6089  -10.2376 C   0  0  0  0  0  0  0  0  0  0  0  0
   19.8552    1.5263  -10.1117 C   0  0  0  0  0  0  0  0  0  0  0  0
   18.9651    2.2881   -9.9979 N   0  0  0  0  0  0  0  0  0  0  0  0
   22.2314    1.0497  -10.3741 C   0  0  0  0  0  0  0  0  0  0  0  0
   25.5367   -0.5785   -8.8086 C   0  0  0  0  0  0  0  0  0  0  0  0
   25.2860   -1.8031   -9.0660 O   0  0  0  0  0  0  0  0  0  0  0  0
   25.6093   -0.2684   -7.4640 O   0  0  0  0  0  0  0  0  0  0  0  0
  2  1  1  6
  3  2  1  1
  2  4  1  0
  4  5  1  6
  5  6  1  1
  6  7  1  6
  7  8  1  0
  8  9  2  0
  9 10  1  0
 10 11  1  0
 10 12  2  0
 12 13  1  0
 13 14  1  0
 14 15  3  0
 13 16  2  0
  6 17  1  0
 17 18  2  0
 17 19  1  0
  6  2  1  0
 16  8  1  0
M  END
$$$$
