_rank1
     RDKit          3D

 19 20  0  0  0  0  0  0  0  0999 V2000
   26.2865    1.8603  -10.2679 C   0  0  0  0  0  0  0  0  0  0  0  0
   26.4016    0.3784  -10.5031 C   0  0  1  0  0  0  0  0  0  0  0  0
   27.4569    0.0696  -11.4923 C   0  0  0  0  0  0  0  0  0  0  0  0
   26.5887   -0.4514   -9.2466 C   0  0  0  0  0  0  0  0  0  0  0  0
   25.7981   -1.5247   -9.9974 C   0  0  0  0  0  0  0  0  0  0  0  0
   25.0907   -0.3427  -10.7089 C   0  0  1  0  0  0  0  0  0  0  0  0
   24.0605    0.0869   -9.8647 O   0  0  0  0  0  0  0  0  0  0  0  0
   22.7558   -0.3186   -9.9698 C   0  0  0  0  0  0  0  0  0  0  0  0
   22.3156   -1.5516  -10.3984 C   0  0  0  0  0  0  0  0  0  0  0  0
   20.9495   -1.8512  -10.4615 C   0  0  0  0  0  0  0  0  0  0  0  0
   20.5661   -3.0863  -10.8931 F   0  0  0  0  0  0  0  0  0  0  0  0
   19.9845   -0.9384  -10.1018 C   0  0  0  0  0  0  0  0  0  0  0  0
   20.4159    0.2951   -9.6720 C   0  0  0  0  0  0  0  0  0  0  0  0
   19.4261    1.2585   -9.2927 C   0  0  0  0  0  0  0  0  0  0  0  0
   18.6213    2.0541   -8.9691 N   0  0  0  0  0  0  0  0  0  0  0  0
   21.7472    0.5851   -9.6109 C   0  0  0  0  0  0  0  0  0  0  0  0
   24.7727   -0.6304  -12.1013 C   0  0  0  0  0  0  0  0  0  0  0  0
   23.8811    0.0856  -12.6679 O   0  0  0  0  0  0  0  0  0  0  0  0
   25.3330   -1.6064  -12.9031 O   0  0  0  0  0  0  0  0  0  0  0  0
  2  1  1  1
  3  2  1  1
  2  4  1  0
  4  5  1  6
  5  6  1  1
  6  7  1  1
  7  8  1  0
  8  9  2  0
  9 10  1  0
 10 11  1  0
 10 12  2  0
 12 13  1  0
 13 14  1  0
 14 15  3  0
 13 16  2  0
  6 17  1  0
 17 18  2  0
 17 19  1  0
  6  2  1  0
 16  8  1  0
M  END
$$$$
