_rank10
     RDKit          3D

 19 20  0  0  0  0  0  0  0  0999 V2000
   27.6788   -0.9001  -11.3224 C   0  0  0  0  0  0  0  0  0  0  0  0
   27.2080    0.1413  -10.3433 C   0  0  1  0  0  0  0  0  0  0  0  0
   28.2271    0.4048   -9.3044 C   0  0  0  0  0  0  0  0  0  0  0  0
   26.7403    1.4399  -10.9736 C   0  0  0  0  0  0  0  0  0  0  0  0
   25.7619    1.5029   -9.7990 C   0  0  0  0  0  0  0  0  0  0  0  0
   25.7986   -0.0466   -9.8345 C   0  0  1  0  0  0  0  0  0  0  0  0
   24.8851   -0.4563  -10.8123 O   0  0  0  0  0  0  0  0  0  0  0  0
   23.5780   -0.7817  -10.5605 C   0  0  0  0  0  0  0  0  0  0  0  0
   23.1268   -1.6822   -9.6206 C   0  0  0  0  0  0  0  0  0  0  0  0
   21.7592   -1.9308   -9.4536 C   0  0  0  0  0  0  0  0  0  0  0  0
   21.3648   -2.8319   -8.5096 F   0  0  0  0  0  0  0  0  0  0  0  0
   20.8036   -1.2944  -10.2122 C   0  0  0  0  0  0  0  0  0  0  0  0
   21.2459   -0.3931  -11.1526 C   0  0  0  0  0  0  0  0  0  0  0  0
   20.2658    0.2799  -11.9516 C   0  0  0  0  0  0  0  0  0  0  0  0
   19.4563    0.8410  -12.5960 N   0  0  0  0  0  0  0  0  0  0  0  0
   22.5785   -0.1520  -11.3136 C   0  0  0  0  0  0  0  0  0  0  0  0
   25.7107   -0.6440   -8.5085 C   0  0  0  0  0  0  0  0  0  0  0  0
   25.9543    0.1027   -7.5026 O   0  0  0  0  0  0  0  0  0  0  0  0
   25.3869   -1.9513   -8.1995 O   0  0  0  0  0  0  0  0  0  0  0  0
  2  1  1  6
  3  2  1  1
  2  4  1  0
  4  5  1  6
  5  6  1  1
  6  7  1  6
  7  8  1  0
  8  9  2  0
  9 10  1  0
 10 11  1  0
 10 12  2  0
 12 13  1  0
 13 14  1  0
 14 15  3  0
 13 16  2  0
  6 17  1  0
 17 18  2  0
 17 19  1  0
  6  2  1  0
 16  8  1  0
M  END
$$$$
