_rank12
     RDKit          3D

 19 20  0  0  0  0  0  0  0  0999 V2000
   27.6296   -0.8546  -11.2876 C   0  0  0  0  0  0  0  0  0  0  0  0
   26.9776    0.2043  -10.4401 C   0  0  1  0  0  0  0  0  0  0  0  0
   27.9848    1.0641   -9.7817 C   0  0  0  0  0  0  0  0  0  0  0  0
   25.9450    1.0493  -11.1627 C   0  0  0  0  0  0  0  0  0  0  0  0
   25.2416    1.1128   -9.8054 C   0  0  0  0  0  0  0  0  0  0  0  0
   25.8615   -0.2847   -9.5478 C   0  0  1  0  0  0  0  0  0  0  0  0
   25.0168   -1.2251  -10.1482 O   0  0  0  0  0  0  0  0  0  0  0  0
   23.6680   -1.0541  -10.3192 C   0  0  0  0  0  0  0  0  0  0  0  0
   22.7529   -0.7448   -9.3370 C   0  0  0  0  0  0  0  0  0  0  0  0
   21.3935   -0.5925   -9.6356 C   0  0  0  0  0  0  0  0  0  0  0  0
   20.5286   -0.2867   -8.6271 F   0  0  0  0  0  0  0  0  0  0  0  0
   20.9056   -0.7422  -10.9136 C   0  0  0  0  0  0  0  0  0  0  0  0
   21.8132   -1.0504  -11.9003 C   0  0  0  0  0  0  0  0  0  0  0  0
   21.3242   -1.2096  -13.2372 C   0  0  0  0  0  0  0  0  0  0  0  0
   20.9292   -1.3540  -14.3366 N   0  0  0  0  0  0  0  0  0  0  0  0
   23.1370   -1.1980  -11.6076 C   0  0  0  0  0  0  0  0  0  0  0  0
   26.2452   -0.4845   -8.1566 C   0  0  0  0  0  0  0  0  0  0  0  0
   26.0845    0.4909   -7.3494 O   0  0  0  0  0  0  0  0  0  0  0  0
   26.7734   -1.6289   -7.5903 O   0  0  0  0  0  0  0  0  0  0  0  0
  2  1  1  6
  3  2  1  1
  2  4  1  0
  4  5  1  6
  5  6  1  1
  6  7  1  6
  7  8  1  0
  8  9  2  0
  9 10  1  0
 10 11  1  0
 10 12  2  0
 12 13  1  0
 13 14  1  0
 14 15  3  0
 13 16  2  0
  6 17  1  0
 17 18  2  0
 17 19  1  0
  6  2  1  0
 16  8  1  0
M  END
$$$$
