_rank7
     RDKit          3D

 19 20  0  0  0  0  0  0  0  0999 V2000
   27.5974   -1.9172  -10.5956 C   0  0  0  0  0  0  0  0  0  0  0  0
   27.4130   -0.4412  -10.3670 C   0  0  1  0  0  0  0  0  0  0  0  0
   28.4966    0.1141   -9.5274 C   0  0  0  0  0  0  0  0  0  0  0  0
   27.2428    0.3807  -11.6311 C   0  0  0  0  0  0  0  0  0  0  0  0
   26.3424    1.2709  -10.7722 C   0  0  0  0  0  0  0  0  0  0  0  0
   26.0148   -0.0211   -9.9804 C   0  0  1  0  0  0  0  0  0  0  0  0
   25.0016   -0.6855  -10.6806 O   0  0  0  0  0  0  0  0  0  0  0  0
   23.6648   -0.5661  -10.4037 C   0  0  0  0  0  0  0  0  0  0  0  0
   23.0739    0.4143   -9.6373 C   0  0  0  0  0  0  0  0  0  0  0  0
   21.6900    0.4328   -9.4260 C   0  0  0  0  0  0  0  0  0  0  0  0
   21.1547    1.4247   -8.6590 F   0  0  0  0  0  0  0  0  0  0  0  0
   20.8560   -0.5182   -9.9681 C   0  0  0  0  0  0  0  0  0  0  0  0
   21.4383   -1.5003  -10.7353 C   0  0  0  0  0  0  0  0  0  0  0  0
   20.5862   -2.4989  -11.3086 C   0  0  0  0  0  0  0  0  0  0  0  0
   19.8965   -3.3222  -11.7903 N   0  0  0  0  0  0  0  0  0  0  0  0
   22.7866   -1.5165  -10.9402 C   0  0  0  0  0  0  0  0  0  0  0  0
   25.8301    0.2213   -8.5557 C   0  0  0  0  0  0  0  0  0  0  0  0
   25.8421    1.4319   -8.1520 O   0  0  0  0  0  0  0  0  0  0  0  0
   25.6377   -0.7220   -7.5645 O   0  0  0  0  0  0  0  0  0  0  0  0
  2  1  1  6
  3  2  1  1
  2  4  1  0
  4  5  1  6
  5  6  1  1
  6  7  1  6
  7  8  1  0
  8  9  2  0
  9 10  1  0
 10 11  1  0
 10 12  2  0
 12 13  1  0
 13 14  1  0
 14 15  3  0
 13 16  2  0
  6 17  1  0
 17 18  2  0
 17 19  1  0
  6  2  1  0
 16  8  1  0
M  END
$$$$
