_rank20
     RDKit          3D

 19 20  0  0  0  0  0  0  0  0999 V2000
   23.1799    0.3831  -13.7058 C   0  0  0  0  0  0  0  0  0  0  0  0
   22.6326   -0.7855  -12.9314 C   0  0  1  0  0  0  0  0  0  0  0  0
   21.1962   -0.9950  -13.2147 C   0  0  0  0  0  0  0  0  0  0  0  0
   23.4051   -2.0799  -13.1048 C   0  0  0  0  0  0  0  0  0  0  0  0
   22.9944   -2.3636  -11.6585 C   0  0  0  0  0  0  0  0  0  0  0  0
   23.0167   -0.8247  -11.4714 C   0  0  1  0  0  0  0  0  0  0  0  0
   24.3441   -0.4617  -11.2172 O   0  0  0  0  0  0  0  0  0  0  0  0
   24.8808   -0.3236   -9.9639 C   0  0  0  0  0  0  0  0  0  0  0  0
   24.2149   -0.4810   -8.7682 C   0  0  0  0  0  0  0  0  0  0  0  0
   24.8744   -0.3150   -7.5445 C   0  0  0  0  0  0  0  0  0  0  0  0
   24.1696   -0.4816   -6.3894 F   0  0  0  0  0  0  0  0  0  0  0  0
   26.2095    0.0106   -7.4730 C   0  0  0  0  0  0  0  0  0  0  0  0
   26.8819    0.1688   -8.6626 C   0  0  0  0  0  0  0  0  0  0  0  0
   28.2728    0.5073   -8.6085 C   0  0  0  0  0  0  0  0  0  0  0  0
   29.4121    0.7985   -8.5571 N   0  0  0  0  0  0  0  0  0  0  0  0
   26.2379    0.0064   -9.8538 C   0  0  0  0  0  0  0  0  0  0  0  0
   21.9813   -0.3513  -10.5624 C   0  0  0  0  0  0  0  0  0  0  0  0
   22.2236    0.7003   -9.8810 O   0  0  0  0  0  0  0  0  0  0  0  0
   20.7386   -0.9144  -10.3436 O   0  0  0  0  0  0  0  0  0  0  0  0
  2  1  1  6
  3  2  1  1
  2  4  1  0
  4  5  1  6
  5  6  1  1
  6  7  1  6
  7  8  1  0
  8  9  2  0
  9 10  1  0
 10 11  1  0
 10 12  2  0
 12 13  1  0
 13 14  1  0
 14 15  3  0
 13 16  2  0
  6 17  1  0
 17 18  2  0
 17 19  1  0
  6  2  1  0
 16  8  1  0
M  END
$$$$
