_rank15
     RDKit          3D

 19 20  0  0  0  0  0  0  0  0999 V2000
   23.4772   -0.1641  -13.0116 C   0  0  0  0  0  0  0  0  0  0  0  0
   22.4634   -0.7838  -12.0881 C   0  0  1  0  0  0  0  0  0  0  0  0
   21.1511   -0.1107  -12.1981 C   0  0  0  0  0  0  0  0  0  0  0  0
   22.3065   -2.2860  -12.2335 C   0  0  0  0  0  0  0  0  0  0  0  0
   22.0081   -2.2664  -10.7330 C   0  0  0  0  0  0  0  0  0  0  0  0
   22.9465   -1.0335  -10.6792 C   0  0  1  0  0  0  0  0  0  0  0  0
   24.2568   -1.5186  -10.5991 O   0  0  0  0  0  0  0  0  0  0  0  0
   25.2684   -0.9012   -9.9112 C   0  0  0  0  0  0  0  0  0  0  0  0
   25.4042    0.4531   -9.6990 C   0  0  0  0  0  0  0  0  0  0  0  0
   26.4860    0.9680   -8.9747 C   0  0  0  0  0  0  0  0  0  0  0  0
   26.5743    2.3163   -8.7933 F   0  0  0  0  0  0  0  0  0  0  0  0
   27.4605    0.1556   -8.4417 C   0  0  0  0  0  0  0  0  0  0  0  0
   27.3318   -1.1983   -8.6485 C   0  0  0  0  0  0  0  0  0  0  0  0
   28.3364   -2.0602   -8.1008 C   0  0  0  0  0  0  0  0  0  0  0  0
   29.1687   -2.7563   -7.6447 N   0  0  0  0  0  0  0  0  0  0  0  0
   26.2772   -1.6980   -9.3542 C   0  0  0  0  0  0  0  0  0  0  0  0
   22.5146   -0.0371   -9.7080 C   0  0  0  0  0  0  0  0  0  0  0  0
   22.3429   -0.4176   -8.5019 O   0  0  0  0  0  0  0  0  0  0  0  0
   22.2634    1.3020   -9.9383 O   0  0  0  0  0  0  0  0  0  0  0  0
  2  1  1  6
  3  2  1  1
  2  4  1  0
  4  5  1  6
  5  6  1  1
  6  7  1  6
  7  8  1  0
  8  9  2  0
  9 10  1  0
 10 11  1  0
 10 12  2  0
 12 13  1  0
 13 14  1  0
 14 15  3  0
 13 16  2  0
  6 17  1  0
 17 18  2  0
 17 19  1  0
  6  2  1  0
 16  8  1  0
M  END
$$$$
