_rank14
     RDKit          3D

 17 18  0  0  0  0  0  0  0  0999 V2000
   28.1040    1.6614  -12.6720 C   0  0  0  0  0  0  0  0  0  0  0  0
   27.2566    1.6160  -11.5670 O   0  0  0  0  0  0  0  0  0  0  0  0
   27.1014    0.2811  -11.2037 C   0  0  1  0  0  0  0  0  0  0  0  0
   28.1919   -0.0856  -10.2196 C   0  0  0  0  0  0  0  0  0  0  0  0
   27.6914   -1.2837   -9.7107 O   0  0  0  0  0  0  0  0  0  0  0  0
   26.3376   -1.0326   -9.4293 C   0  0  0  0  0  0  0  0  0  0  0  0
   25.8849    0.0524  -10.3588 C   0  0  2  0  0  0  0  0  0  0  0  0
   24.7225   -0.1947  -11.0384 O   0  0  0  0  0  0  0  0  0  0  0  0
   23.5128   -0.6472  -10.6510 C   0  0  0  0  0  0  0  0  0  0  0  0
   23.0744   -0.4492   -9.3664 C   0  0  0  0  0  0  0  0  0  0  0  0
   21.8572   -0.8742   -8.8791 C   0  0  0  0  0  0  0  0  0  0  0  0
   21.4313   -0.6805   -7.6224 F   0  0  0  0  0  0  0  0  0  0  0  0
   21.0235   -1.5526   -9.7703 C   0  0  0  0  0  0  0  0  0  0  0  0
   21.4469   -1.7601  -11.0632 C   0  0  0  0  0  0  0  0  0  0  0  0
   20.5500   -2.4693  -11.9452 C   0  0  0  0  0  0  0  0  0  0  0  0
   19.8370   -3.0118  -12.6498 N   0  0  0  0  0  0  0  0  0  0  0  0
   22.6680   -1.3233  -11.5178 C   0  0  0  0  0  0  0  0  0  0  0  0
  1  2  1  6
  3  2  1  1
  3  4  1  0
  4  5  1  6
  6  5  1  1
  6  7  1  0
  7  8  1  6
  8  9  1  0
  9 10  2  0
 10 11  1  0
 11 12  1  0
 11 13  2  0
 13 14  1  0
 14 15  1  0
 15 16  3  0
 14 17  2  0
  7  3  1  0
 17  9  1  0
M  END
$$$$
