_rank20
     RDKit          3D

 17 18  0  0  0  0  0  0  0  0999 V2000
   23.9627   -2.7348  -14.0996 C   0  0  0  0  0  0  0  0  0  0  0  0
   23.1913   -2.3991  -12.9890 O   0  0  0  0  0  0  0  0  0  0  0  0
   23.2151   -1.0134  -12.8568 C   0  0  1  0  0  0  0  0  0  0  0  0
   21.8197   -0.4775  -13.0968 C   0  0  0  0  0  0  0  0  0  0  0  0
   21.9468    0.8158  -12.5905 O   0  0  0  0  0  0  0  0  0  0  0  0
   22.6041    0.6703  -11.3570 C   0  0  0  0  0  0  0  0  0  0  0  0
   23.4350   -0.5742  -11.4409 C   0  0  2  0  0  0  0  0  0  0  0  0
   24.7407   -0.4437  -11.0511 O   0  0  0  0  0  0  0  0  0  0  0  0
   25.3360   -0.3959   -9.8421 C   0  0  0  0  0  0  0  0  0  0  0  0
   24.6021   -0.5761   -8.6974 C   0  0  0  0  0  0  0  0  0  0  0  0
   25.1202   -0.5442   -7.4206 C   0  0  0  0  0  0  0  0  0  0  0  0
   24.4003   -0.7195   -6.3030 F   0  0  0  0  0  0  0  0  0  0  0  0
   26.4918   -0.3111   -7.3026 C   0  0  0  0  0  0  0  0  0  0  0  0
   27.2440   -0.1283   -8.4405 C   0  0  0  0  0  0  0  0  0  0  0  0
   28.6570    0.1126   -8.2655 C   0  0  0  0  0  0  0  0  0  0  0  0
   29.7762    0.2885   -8.1406 N   0  0  0  0  0  0  0  0  0  0  0  0
   26.6958   -0.1658   -9.7001 C   0  0  0  0  0  0  0  0  0  0  0  0
  1  2  1  6
  3  2  1  1
  3  4  1  0
  4  5  1  6
  6  5  1  1
  6  7  1  0
  7  8  1  6
  8  9  1  0
  9 10  2  0
 10 11  1  0
 11 12  1  0
 11 13  2  0
 13 14  1  0
 14 15  1  0
 15 16  3  0
 14 17  2  0
  7  3  1  0
 17  9  1  0
M  END
$$$$
