_rank15
     RDKit          3D

 17 18  0  0  0  0  0  0  0  0999 V2000
   27.7420    1.1140   -7.8419 C   0  0  0  0  0  0  0  0  0  0  0  0
   26.6848    0.3671   -8.3576 O   0  0  0  0  0  0  0  0  0  0  0  0
   26.9551    0.1168   -9.7001 C   0  0  1  0  0  0  0  0  0  0  0  0
   28.2337   -0.6880   -9.7974 C   0  0  0  0  0  0  0  0  0  0  0  0
   28.1591   -1.1373  -11.1155 O   0  0  0  0  0  0  0  0  0  0  0  0
   26.8433   -1.6039  -11.2764 C   0  0  0  0  0  0  0  0  0  0  0  0
   25.9821   -0.8441  -10.3134 C   0  0  2  0  0  0  0  0  0  0  0  0
   24.8470   -0.2904  -10.8416 O   0  0  0  0  0  0  0  0  0  0  0  0
   23.5801   -0.7362  -10.9618 C   0  0  0  0  0  0  0  0  0  0  0  0
   22.9881   -0.8259  -12.1959 C   0  0  0  0  0  0  0  0  0  0  0  0
   21.7016   -1.2679  -12.4182 C   0  0  0  0  0  0  0  0  0  0  0  0
   21.1247   -1.3536  -13.6257 F   0  0  0  0  0  0  0  0  0  0  0  0
   20.9629   -1.6477  -11.2959 C   0  0  0  0  0  0  0  0  0  0  0  0
   21.5408   -1.5646  -10.0497 C   0  0  0  0  0  0  0  0  0  0  0  0
   20.7349   -1.9660   -8.9208 C   0  0  0  0  0  0  0  0  0  0  0  0
   20.1131   -2.2954   -8.0241 N   0  0  0  0  0  0  0  0  0  0  0  0
   22.8272   -1.1187   -9.8623 C   0  0  0  0  0  0  0  0  0  0  0  0
  1  2  1  6
  3  2  1  1
  3  4  1  0
  4  5  1  6
  6  5  1  1
  6  7  1  0
  7  8  1  6
  8  9  1  0
  9 10  2  0
 10 11  1  0
 11 12  1  0
 11 13  2  0
 13 14  1  0
 14 15  1  0
 15 16  3  0
 14 17  2  0
  7  3  1  0
 17  9  1  0
M  END
$$$$
