_rank5
     RDKit          3D

 17 18  0  0  0  0  0  0  0  0999 V2000
   27.1407   -1.4400   -8.6869 C   0  0  0  0  0  0  0  0  0  0  0  0
   26.2713   -0.3512   -8.6886 O   0  0  0  0  0  0  0  0  0  0  0  0
   26.4171    0.3085   -9.9058 C   0  0  1  0  0  0  0  0  0  0  0  0
   27.7295   -0.1112  -10.5329 C   0  0  0  0  0  0  0  0  0  0  0  0
   27.5487    0.3379  -11.8408 O   0  0  0  0  0  0  0  0  0  0  0  0
   26.2573   -0.0811  -12.2037 C   0  0  0  0  0  0  0  0  0  0  0  0
   25.4519   -0.1790  -10.9435 C   0  0  2  0  0  0  0  0  0  0  0  0
   24.2338    0.4451  -10.9676 O   0  0  0  0  0  0  0  0  0  0  0  0
   22.9895    0.0396  -10.6426 C   0  0  0  0  0  0  0  0  0  0  0  0
   22.6831   -1.2966  -10.5953 C   0  0  0  0  0  0  0  0  0  0  0  0
   21.4432   -1.8059  -10.2748 C   0  0  0  0  0  0  0  0  0  0  0  0
   21.1458   -3.1127  -10.2304 F   0  0  0  0  0  0  0  0  0  0  0  0
   20.4392   -0.8815   -9.9796 C   0  0  0  0  0  0  0  0  0  0  0  0
   20.7286    0.4633  -10.0218 C   0  0  0  0  0  0  0  0  0  0  0  0
   19.6559    1.3789   -9.7115 C   0  0  0  0  0  0  0  0  0  0  0  0
   18.7972    2.0861   -9.4635 N   0  0  0  0  0  0  0  0  0  0  0  0
   21.9767    0.9386  -10.3458 C   0  0  0  0  0  0  0  0  0  0  0  0
  1  2  1  6
  3  2  1  1
  3  4  1  0
  4  5  1  6
  6  5  1  1
  6  7  1  0
  7  8  1  6
  8  9  1  0
  9 10  2  0
 10 11  1  0
 11 12  1  0
 11 13  2  0
 13 14  1  0
 14 15  1  0
 15 16  3  0
 14 17  2  0
  7  3  1  0
 17  9  1  0
M  END
$$$$
