_rank19
     RDKit          3D

 17 18  0  0  0  0  0  0  0  0999 V2000
   20.9821    0.0454  -12.2304 C   0  0  0  0  0  0  0  0  0  0  0  0
   22.0768    0.1654  -13.0840 O   0  0  0  0  0  0  0  0  0  0  0  0
   23.0901   -0.6545  -12.5951 C   0  0  1  0  0  0  0  0  0  0  0  0
   23.8115   -1.2875  -13.7659 C   0  0  0  0  0  0  0  0  0  0  0  0
   24.9633   -1.7602  -13.1374 O   0  0  0  0  0  0  0  0  0  0  0  0
   25.4110   -0.6988  -12.3325 C   0  0  0  0  0  0  0  0  0  0  0  0
   24.2105    0.1237  -11.9742 C   0  0  2  0  0  0  0  0  0  0  0  0
   24.0686    0.4194  -10.6452 O   0  0  0  0  0  0  0  0  0  0  0  0
   24.9009    0.3162   -9.5893 C   0  0  0  0  0  0  0  0  0  0  0  0
   26.1853    0.7914   -9.6665 C   0  0  0  0  0  0  0  0  0  0  0  0
   27.1067    0.7306   -8.6432 C   0  0  0  0  0  0  0  0  0  0  0  0
   28.3623    1.1948   -8.7216 F   0  0  0  0  0  0  0  0  0  0  0  0
   26.6854    0.1405   -7.4500 C   0  0  0  0  0  0  0  0  0  0  0  0
   25.3999   -0.3416   -7.3544 C   0  0  0  0  0  0  0  0  0  0  0  0
   25.0135   -0.9456   -6.1009 C   0  0  0  0  0  0  0  0  0  0  0  0
   24.6988   -1.4057   -5.1067 N   0  0  0  0  0  0  0  0  0  0  0  0
   24.5052   -0.2657   -8.3947 C   0  0  0  0  0  0  0  0  0  0  0  0
  1  2  1  6
  3  2  1  6
  3  4  1  0
  4  5  1  6
  6  5  1  1
  6  7  1  0
  7  8  1  1
  8  9  1  0
  9 10  2  0
 10 11  1  0
 11 12  1  0
 11 13  2  0
 13 14  1  0
 14 15  1  0
 15 16  3  0
 14 17  2  0
  7  3  1  0
 17  9  1  0
M  END
$$$$
