_rank13
     RDKit          3D

 17 18  0  0  0  0  0  0  0  0999 V2000
   20.9435   -0.8069  -13.1261 C   0  0  0  0  0  0  0  0  0  0  0  0
   21.2755    0.3659  -12.4511 O   0  0  0  0  0  0  0  0  0  0  0  0
   21.7700    0.0113  -11.1990 C   0  0  1  0  0  0  0  0  0  0  0  0
   20.6171   -0.0499  -10.2197 C   0  0  0  0  0  0  0  0  0  0  0  0
   21.2101   -0.7386   -9.1619 O   0  0  0  0  0  0  0  0  0  0  0  0
   21.8854   -1.8200   -9.7531 C   0  0  0  0  0  0  0  0  0  0  0  0
   22.2446   -1.4094  -11.1490 C   0  0  2  0  0  0  0  0  0  0  0  0
   23.5479   -1.6178  -11.5123 O   0  0  0  0  0  0  0  0  0  0  0  0
   24.7179   -1.1383  -11.0439 C   0  0  0  0  0  0  0  0  0  0  0  0
   25.7869   -0.9668  -11.8861 C   0  0  0  0  0  0  0  0  0  0  0  0
   27.0193   -0.4850  -11.5007 C   0  0  0  0  0  0  0  0  0  0  0  0
   28.0633   -0.3194  -12.3258 F   0  0  0  0  0  0  0  0  0  0  0  0
   27.1729   -0.1524  -10.1533 C   0  0  0  0  0  0  0  0  0  0  0  0
   26.1109   -0.3178   -9.2938 C   0  0  0  0  0  0  0  0  0  0  0  0
   26.3209    0.0374   -7.9099 C   0  0  0  0  0  0  0  0  0  0  0  0
   26.4685    0.3107   -6.8133 N   0  0  0  0  0  0  0  0  0  0  0  0
   24.8940   -0.8015   -9.7106 C   0  0  0  0  0  0  0  0  0  0  0  0
  1  2  1  6
  3  2  1  6
  3  4  1  0
  4  5  1  6
  6  5  1  1
  6  7  1  0
  7  8  1  1
  8  9  1  0
  9 10  2  0
 10 11  1  0
 11 12  1  0
 11 13  2  0
 13 14  1  0
 14 15  1  0
 15 16  3  0
 14 17  2  0
  7  3  1  0
 17  9  1  0
M  END
$$$$
