_rank10
     RDKit          3D

 17 18  0  0  0  0  0  0  0  0999 V2000
   27.6696    0.4062   -7.4872 C   0  0  0  0  0  0  0  0  0  0  0  0
   26.5969   -0.0848   -8.2286 O   0  0  0  0  0  0  0  0  0  0  0  0
   26.8177    0.2405   -9.5641 C   0  0  1  0  0  0  0  0  0  0  0  0
   28.1012   -0.4202  -10.0202 C   0  0  0  0  0  0  0  0  0  0  0  0
   27.9807   -0.2957  -11.4040 O   0  0  0  0  0  0  0  0  0  0  0  0
   26.6654   -0.6916  -11.7008 C   0  0  0  0  0  0  0  0  0  0  0  0
   25.8332   -0.4132  -10.4858 C   0  0  2  0  0  0  0  0  0  0  0  0
   24.6718    0.2768  -10.7071 O   0  0  0  0  0  0  0  0  0  0  0  0
   23.3720   -0.0802  -10.6684 C   0  0  0  0  0  0  0  0  0  0  0  0
   22.4014    0.7757  -11.1231 C   0  0  0  0  0  0  0  0  0  0  0  0
   21.0509    0.5006  -11.1236 C   0  0  0  0  0  0  0  0  0  0  0  0
   20.1038    1.3396  -11.5677 F   0  0  0  0  0  0  0  0  0  0  0  0
   20.6608   -0.7428  -10.6223 C   0  0  0  0  0  0  0  0  0  0  0  0
   21.6211   -1.6145  -10.1619 C   0  0  0  0  0  0  0  0  0  0  0  0
   21.1667   -2.8863   -9.6505 C   0  0  0  0  0  0  0  0  0  0  0  0
   20.8087   -3.8827   -9.2284 N   0  0  0  0  0  0  0  0  0  0  0  0
   22.9608   -1.3089  -10.1751 C   0  0  0  0  0  0  0  0  0  0  0  0
  1  2  1  6
  3  2  1  1
  3  4  1  0
  4  5  1  6
  6  5  1  1
  6  7  1  0
  7  8  1  6
  8  9  1  0
  9 10  2  0
 10 11  1  0
 11 12  1  0
 11 13  2  0
 13 14  1  0
 14 15  1  0
 15 16  3  0
 14 17  2  0
  7  3  1  0
 17  9  1  0
M  END
$$$$
