_rank6
     RDKit          3D

 17 18  0  0  0  0  0  0  0  0999 V2000
   19.6391    1.6906  -11.0789 C   0  0  0  0  0  0  0  0  0  0  0  0
   20.3867    0.6749  -11.6712 O   0  0  0  0  0  0  0  0  0  0  0  0
   20.6140   -0.3040  -10.7078 C   0  0  1  0  0  0  0  0  0  0  0  0
   19.7478   -1.5055  -11.0210 C   0  0  0  0  0  0  0  0  0  0  0  0
   20.3428   -2.4734  -10.2122 O   0  0  0  0  0  0  0  0  0  0  0  0
   21.7252   -2.3395  -10.4261 C   0  0  0  0  0  0  0  0  0  0  0  0
   21.9776   -0.9156  -10.8197 C   0  0  2  0  0  0  0  0  0  0  0  0
   22.9769   -0.2785  -10.1345 O   0  0  0  0  0  0  0  0  0  0  0  0
   24.3080   -0.1871  -10.3295 C   0  0  0  0  0  0  0  0  0  0  0  0
   24.8285   -0.2069  -11.5985 C   0  0  0  0  0  0  0  0  0  0  0  0
   26.1713   -0.1201  -11.8967 C   0  0  0  0  0  0  0  0  0  0  0  0
   26.6777   -0.1409  -13.1381 F   0  0  0  0  0  0  0  0  0  0  0  0
   27.0502   -0.0037  -10.8180 C   0  0  0  0  0  0  0  0  0  0  0  0
   26.5458    0.0181   -9.5378 C   0  0  0  0  0  0  0  0  0  0  0  0
   27.4956    0.1368   -8.4565 C   0  0  0  0  0  0  0  0  0  0  0  0
   28.2302    0.2299   -7.5901 N   0  0  0  0  0  0  0  0  0  0  0  0
   25.2000   -0.0710   -9.2745 C   0  0  0  0  0  0  0  0  0  0  0  0
  1  2  1  6
  3  2  1  6
  3  4  1  0
  4  5  1  6
  6  5  1  1
  6  7  1  0
  7  8  1  1
  8  9  1  0
  9 10  2  0
 10 11  1  0
 11 12  1  0
 11 13  2  0
 13 14  1  0
 14 15  1  0
 15 16  3  0
 14 17  2  0
  7  3  1  0
 17  9  1  0
M  END
$$$$
