_rank3
     RDKit          3D

 17 18  0  0  0  0  0  0  0  0999 V2000
   19.0923    1.3803  -10.7679 C   0  0  0  0  0  0  0  0  0  0  0  0
   20.3607    0.9584  -11.1608 O   0  0  0  0  0  0  0  0  0  0  0  0
   20.6228   -0.2522  -10.5254 C   0  0  1  0  0  0  0  0  0  0  0  0
   19.7665   -1.3290  -11.1571 C   0  0  0  0  0  0  0  0  0  0  0  0
   20.3925   -2.4772  -10.6727 O   0  0  0  0  0  0  0  0  0  0  0  0
   21.7679   -2.2603  -10.8628 C   0  0  0  0  0  0  0  0  0  0  0  0
   21.9919   -0.7787  -10.8328 C   0  0  2  0  0  0  0  0  0  0  0  0
   22.9974   -0.3469  -10.0103 O   0  0  0  0  0  0  0  0  0  0  0  0
   24.3406   -0.3442  -10.1282 C   0  0  0  0  0  0  0  0  0  0  0  0
   24.9355   -0.6813  -11.3173 C   0  0  0  0  0  0  0  0  0  0  0  0
   26.2965   -0.7080  -11.5334 C   0  0  0  0  0  0  0  0  0  0  0  0
   26.8757   -1.0391  -12.6966 F   0  0  0  0  0  0  0  0  0  0  0  0
   27.1129   -0.3641  -10.4542 C   0  0  0  0  0  0  0  0  0  0  0  0
   26.5334   -0.0228   -9.2534 C   0  0  0  0  0  0  0  0  0  0  0  0
   27.4204    0.3218   -8.1673 C   0  0  0  0  0  0  0  0  0  0  0  0
   28.1047    0.5993   -7.2990 N   0  0  0  0  0  0  0  0  0  0  0  0
   25.1714   -0.0066   -9.0709 C   0  0  0  0  0  0  0  0  0  0  0  0
  1  2  1  6
  3  2  1  6
  3  4  1  0
  4  5  1  6
  6  5  1  1
  6  7  1  0
  7  8  1  1
  8  9  1  0
  9 10  2  0
 10 11  1  0
 11 12  1  0
 11 13  2  0
 13 14  1  0
 14 15  1  0
 15 16  3  0
 14 17  2  0
  7  3  1  0
 17  9  1  0
M  END
$$$$
