_rank4
     RDKit          3D

 17 18  0  0  0  0  0  0  0  0999 V2000
   26.9577   -1.8269   -8.4783 C   0  0  0  0  0  0  0  0  0  0  0  0
   26.6058   -1.6941   -9.8199 O   0  0  0  0  0  0  0  0  0  0  0  0
   26.6866   -0.3440  -10.1498 C   0  0  1  0  0  0  0  0  0  0  0  0
   27.9198   -0.1237  -10.9999 C   0  0  0  0  0  0  0  0  0  0  0  0
   27.6572    1.1451  -11.5159 O   0  0  0  0  0  0  0  0  0  0  0  0
   26.3203    1.1028  -11.9471 C   0  0  0  0  0  0  0  0  0  0  0  0
   25.6160    0.0788  -11.1095 C   0  0  2  0  0  0  0  0  0  0  0  0
   24.4345    0.4820  -10.5478 O   0  0  0  0  0  0  0  0  0  0  0  0
   23.2063   -0.0724  -10.4996 C   0  0  0  0  0  0  0  0  0  0  0  0
   23.0314   -1.4027  -10.7847 C   0  0  0  0  0  0  0  0  0  0  0  0
   21.8183   -2.0565  -10.7625 C   0  0  0  0  0  0  0  0  0  0  0  0
   21.6498   -3.3570  -11.0428 F   0  0  0  0  0  0  0  0  0  0  0  0
   20.6981   -1.2952  -10.4231 C   0  0  0  0  0  0  0  0  0  0  0  0
   20.8547    0.0411  -10.1337 C   0  0  0  0  0  0  0  0  0  0  0  0
   19.6656    0.7856   -9.7916 C   0  0  0  0  0  0  0  0  0  0  0  0
   18.7379    1.3900   -9.5213 N   0  0  0  0  0  0  0  0  0  0  0  0
   22.0796    0.6632  -10.1654 C   0  0  0  0  0  0  0  0  0  0  0  0
  1  2  1  6
  3  2  1  6
  3  4  1  0
  4  5  1  6
  6  5  1  1
  6  7  1  0
  7  8  1  1
  8  9  1  0
  9 10  2  0
 10 11  1  0
 11 12  1  0
 11 13  2  0
 13 14  1  0
 14 15  1  0
 15 16  3  0
 14 17  2  0
  7  3  1  0
 17  9  1  0
M  END
$$$$
