_rank9
     RDKit          3D

 17 18  0  0  0  0  0  0  0  0999 V2000
   27.2039    1.7067   -8.8497 C   0  0  0  0  0  0  0  0  0  0  0  0
   26.0786    1.0740   -9.3738 O   0  0  0  0  0  0  0  0  0  0  0  0
   26.1128    1.2213  -10.7577 C   0  0  1  0  0  0  0  0  0  0  0  0
   27.5345    1.0129  -11.2344 C   0  0  0  0  0  0  0  0  0  0  0  0
   27.3280    0.8424  -12.6030 O   0  0  0  0  0  0  0  0  0  0  0  0
   26.2526   -0.0560  -12.7087 C   0  0  0  0  0  0  0  0  0  0  0  0
   25.4196    0.1014  -11.4728 C   0  0  2  0  0  0  0  0  0  0  0  0
   24.0761    0.2643  -11.6791 O   0  0  0  0  0  0  0  0  0  0  0  0
   22.9917   -0.3898  -11.2160 C   0  0  0  0  0  0  0  0  0  0  0  0
   23.1134   -1.6463  -10.6795 C   0  0  0  0  0  0  0  0  0  0  0  0
   22.0659   -2.3916  -10.1826 C   0  0  0  0  0  0  0  0  0  0  0  0
   22.1872   -3.6203   -9.6596 F   0  0  0  0  0  0  0  0  0  0  0  0
   20.7974   -1.8105  -10.2369 C   0  0  0  0  0  0  0  0  0  0  0  0
   20.6564   -0.5503  -10.7719 C   0  0  0  0  0  0  0  0  0  0  0  0
   19.3242    0.0055  -10.8083 C   0  0  0  0  0  0  0  0  0  0  0  0
   18.2651    0.4257  -10.8379 N   0  0  0  0  0  0  0  0  0  0  0  0
   21.7226    0.1666  -11.2595 C   0  0  0  0  0  0  0  0  0  0  0  0
  1  2  1  6
  3  2  1  1
  3  4  1  0
  4  5  1  6
  6  5  1  1
  6  7  1  0
  7  8  1  6
  8  9  1  0
  9 10  2  0
 10 11  1  0
 11 12  1  0
 11 13  2  0
 13 14  1  0
 14 15  1  0
 15 16  3  0
 14 17  2  0
  7  3  1  0
 17  9  1  0
M  END
$$$$
