_rank11
     RDKit          3D

 17 18  0  0  0  0  0  0  0  0999 V2000
   20.2515   -1.5581  -13.1904 C   0  0  0  0  0  0  0  0  0  0  0  0
   21.5466   -1.4223  -12.6948 O   0  0  0  0  0  0  0  0  0  0  0  0
   21.4775   -0.6780  -11.5204 C   0  0  1  0  0  0  0  0  0  0  0  0
   20.2575   -1.1153  -10.7380 C   0  0  0  0  0  0  0  0  0  0  0  0
   20.5340   -0.5565   -9.4905 O   0  0  0  0  0  0  0  0  0  0  0  0
   21.8765   -0.8780   -9.2273 C   0  0  0  0  0  0  0  0  0  0  0  0
   22.5637   -1.0319  -10.5503 C   0  0  2  0  0  0  0  0  0  0  0  0
   23.7393   -0.3451  -10.6920 O   0  0  0  0  0  0  0  0  0  0  0  0
   24.9715   -0.5204  -10.1731 C   0  0  0  0  0  0  0  0  0  0  0  0
   25.7118   -1.6288  -10.4970 C   0  0  0  0  0  0  0  0  0  0  0  0
   26.9766   -1.8944  -10.0179 C   0  0  0  0  0  0  0  0  0  0  0  0
   27.6979   -2.9794  -10.3352 F   0  0  0  0  0  0  0  0  0  0  0  0
   27.5284   -0.9575   -9.1419 C   0  0  0  0  0  0  0  0  0  0  0  0
   26.8000    0.1608   -8.8059 C   0  0  0  0  0  0  0  0  0  0  0  0
   27.4131    1.0979   -7.8943 C   0  0  0  0  0  0  0  0  0  0  0  0
   27.8959    1.8517   -7.1887 N   0  0  0  0  0  0  0  0  0  0  0  0
   25.5400    0.3958   -9.3015 C   0  0  0  0  0  0  0  0  0  0  0  0
  1  2  1  6
  3  2  1  6
  3  4  1  0
  4  5  1  6
  6  5  1  1
  6  7  1  0
  7  8  1  1
  8  9  1  0
  9 10  2  0
 10 11  1  0
 11 12  1  0
 11 13  2  0
 13 14  1  0
 14 15  1  0
 15 16  3  0
 14 17  2  0
  7  3  1  0
 17  9  1  0
M  END
$$$$
