_rank7
     RDKit          3D

 19 20  0  0  0  0  0  0  0  0999 V2000
   26.8993   -0.1960  -13.3770 C   0  0  0  0  0  0  0  0  0  0  0  0
   27.4436    0.3549  -12.1938 O   0  0  0  0  0  0  0  0  0  0  0  0
   26.4879    0.2211  -11.2237 C   0  0  2  0  0  0  0  0  0  0  0  0
   25.1755    0.9051  -11.5774 C   0  0  0  0  0  0  0  0  0  0  0  0
   24.4219    0.5479  -10.2818 C   0  0  2  0  0  0  0  0  0  0  0  0
   23.2091    1.1829  -10.1883 O   0  0  0  0  0  0  0  0  0  0  0  0
   21.9807    0.5485  -10.2491 C   0  0  0  0  0  0  0  0  0  0  0  0
   20.9028    1.2422   -9.6715 C   0  0  0  0  0  0  0  0  0  0  0  0
   19.6659    0.6818   -9.6932 C   0  0  0  0  0  0  0  0  0  0  0  0
   18.6372    1.3676   -9.1300 F   0  0  0  0  0  0  0  0  0  0  0  0
   19.4392   -0.5488  -10.2664 C   0  0  0  0  0  0  0  0  0  0  0  0
   20.5026   -1.2212  -10.8302 C   0  0  0  0  0  0  0  0  0  0  0  0
   20.2967   -2.5053  -11.4348 C   0  0  0  0  0  0  0  0  0  0  0  0
   20.1194   -3.5597  -11.9112 N   0  0  0  0  0  0  0  0  0  0  0  0
   21.7752   -0.6807  -10.8260 C   0  0  0  0  0  0  0  0  0  0  0  0
   25.4503    1.0556   -9.2691 C   0  0  0  0  0  0  0  0  0  0  0  0
   26.8055    0.8682   -9.9212 C   0  0  1  0  0  0  0  0  0  0  0  0
   27.6278    0.0841   -9.1140 O   0  0  0  0  0  0  0  0  0  0  0  0
   27.8430    0.7500   -7.9190 C   0  0  0  0  0  0  0  0  0  0  0  0
  1  2  1  6
  3  2  1  6
  4  3  1  6
  4  5  1  0
  5  6  1  6
  6  7  1  0
  7  8  2  0
  8  9  1  0
  9 10  1  0
  9 11  2  0
 11 12  1  0
 12 13  1  0
 13 14  3  0
 12 15  2  0
 16  5  1  6
 16 17  1  0
 17 18  1  1
 19 18  1  6
 17  3  1  0
 15  7  1  0
M  END
$$$$
