_rank3
     RDKit          3D

 19 20  0  0  0  0  0  0  0  0999 V2000
   26.9030   -0.1531   -8.0703 C   0  0  0  0  0  0  0  0  0  0  0  0
   26.9477    1.0195   -8.8595 O   0  0  0  0  0  0  0  0  0  0  0  0
   26.1734    0.7796   -9.9617 C   0  0  2  0  0  0  0  0  0  0  0  0
   25.0614   -0.2269   -9.7051 C   0  0  0  0  0  0  0  0  0  0  0  0
   24.4720   -0.2234  -11.1287 C   0  0  2  0  0  0  0  0  0  0  0  0
   23.5173   -1.1934  -11.3036 O   0  0  0  0  0  0  0  0  0  0  0  0
   22.1797   -1.0500  -10.9791 C   0  0  0  0  0  0  0  0  0  0  0  0
   21.3278   -2.0777  -11.4205 C   0  0  0  0  0  0  0  0  0  0  0  0
   20.0011   -2.0056  -11.1392 C   0  0  0  0  0  0  0  0  0  0  0  0
   19.1942   -3.0084  -11.5743 F   0  0  0  0  0  0  0  0  0  0  0  0
   19.4676   -0.9519  -10.4327 C   0  0  0  0  0  0  0  0  0  0  0  0
   20.3111    0.0510  -10.0041 C   0  0  0  0  0  0  0  0  0  0  0  0
   19.7836    1.1616   -9.2657 C   0  0  0  0  0  0  0  0  0  0  0  0
   19.3575    2.0803   -8.6788 N   0  0  0  0  0  0  0  0  0  0  0  0
   21.6668    0.0101  -10.2726 C   0  0  0  0  0  0  0  0  0  0  0  0
   25.7585   -0.4926  -11.9118 C   0  0  0  0  0  0  0  0  0  0  0  0
   26.8762    0.1426  -11.1092 C   0  0  1  0  0  0  0  0  0  0  0  0
   27.5747    1.0599  -11.8923 O   0  0  0  0  0  0  0  0  0  0  0  0
   27.5323    0.6411  -13.2115 C   0  0  0  0  0  0  0  0  0  0  0  0
  1  2  1  6
  3  2  1  1
  4  3  1  6
  4  5  1  0
  5  6  1  1
  6  7  1  0
  7  8  2  0
  8  9  1  0
  9 10  1  0
  9 11  2  0
 11 12  1  0
 12 13  1  0
 13 14  3  0
 12 15  2  0
 16  5  1  6
 16 17  1  0
 17 18  1  6
 19 18  1  6
 17  3  1  0
 15  7  1  0
M  END
$$$$
