_rank20
     RDKit          3D

 19 20  0  0  0  0  0  0  0  0999 V2000
   25.3469    4.2279  -14.2216 C   0  0  0  0  0  0  0  0  0  0  0  0
   25.6604    2.9332  -14.6959 O   0  0  0  0  0  0  0  0  0  0  0  0
   25.0910    2.0474  -13.8222 C   0  0  2  0  0  0  0  0  0  0  0  0
   25.5804    2.2187  -12.3916 C   0  0  0  0  0  0  0  0  0  0  0  0
   24.7514    1.0776  -11.7712 C   0  0  2  0  0  0  0  0  0  0  0  0
   25.0937    0.8304  -10.4656 O   0  0  0  0  0  0  0  0  0  0  0  0
   24.5512   -0.1758   -9.6857 C   0  0  0  0  0  0  0  0  0  0  0  0
   23.2398   -0.5646  -10.0112 C   0  0  0  0  0  0  0  0  0  0  0  0
   22.6411   -1.5469   -9.2893 C   0  0  0  0  0  0  0  0  0  0  0  0
   21.3738   -1.9085   -9.6191 F   0  0  0  0  0  0  0  0  0  0  0  0
   23.2849   -2.1727   -8.2461 C   0  0  0  0  0  0  0  0  0  0  0  0
   24.5706   -1.7844   -7.9346 C   0  0  0  0  0  0  0  0  0  0  0  0
   25.2664   -2.4187   -6.8527 C   0  0  0  0  0  0  0  0  0  0  0  0
   25.8386   -2.9521   -5.9820 N   0  0  0  0  0  0  0  0  0  0  0  0
   25.2107   -0.7880   -8.6483 C   0  0  0  0  0  0  0  0  0  0  0  0
   25.1562   -0.0473  -12.7261 C   0  0  0  0  0  0  0  0  0  0  0  0
   25.4135    0.6145  -14.0650 C   0  0  1  0  0  0  0  0  0  0  0  0
   24.6142    0.0398  -15.0516 O   0  0  0  0  0  0  0  0  0  0  0  0
   24.1105   -1.1583  -14.5734 C   0  0  0  0  0  0  0  0  0  0  0  0
  1  2  1  6
  3  2  1  6
  4  3  1  6
  4  5  1  0
  5  6  1  1
  6  7  1  0
  7  8  2  0
  8  9  1  0
  9 10  1  0
  9 11  2  0
 11 12  1  0
 12 13  1  0
 13 14  3  0
 12 15  2  0
 16  5  1  6
 16 17  1  0
 17 18  1  6
 19 18  1  6
 17  3  1  0
 15  7  1  0
M  END
$$$$
