_rank13
     RDKit          3D

 19 20  0  0  0  0  0  0  0  0999 V2000
   26.7794    1.0547   -7.8767 C   0  0  0  0  0  0  0  0  0  0  0  0
   26.8407    1.5212   -9.2103 O   0  0  0  0  0  0  0  0  0  0  0  0
   26.1995    0.5899   -9.9809 C   0  0  2  0  0  0  0  0  0  0  0  0
   24.7912    0.2784   -9.4962 C   0  0  0  0  0  0  0  0  0  0  0  0
   24.4500   -0.7715  -10.5711 C   0  0  2  0  0  0  0  0  0  0  0  0
   23.2631   -1.4126  -10.3202 O   0  0  0  0  0  0  0  0  0  0  0  0
   22.0111   -0.8497  -10.4957 C   0  0  0  0  0  0  0  0  0  0  0  0
   21.5347   -0.8137  -11.8181 C   0  0  0  0  0  0  0  0  0  0  0  0
   20.3131   -0.2756  -12.0681 C   0  0  0  0  0  0  0  0  0  0  0  0
   19.8703   -0.2500  -13.3523 F   0  0  0  0  0  0  0  0  0  0  0  0
   19.5279    0.2360  -11.0601 C   0  0  0  0  0  0  0  0  0  0  0  0
   20.0038    0.1961   -9.7667 C   0  0  0  0  0  0  0  0  0  0  0  0
   19.2078    0.7217   -8.6958 C   0  0  0  0  0  0  0  0  0  0  0  0
   18.5638    1.1696   -7.8270 N   0  0  0  0  0  0  0  0  0  0  0  0
   21.2428   -0.3443   -9.4758 C   0  0  0  0  0  0  0  0  0  0  0  0
   25.6729   -1.6761  -10.4065 C   0  0  0  0  0  0  0  0  0  0  0  0
   26.8091   -0.7683   -9.9800 C   0  0  1  0  0  0  0  0  0  0  0  0
   27.8790   -0.8816  -10.8659 O   0  0  0  0  0  0  0  0  0  0  0  0
   27.4172   -1.4242  -12.0534 C   0  0  0  0  0  0  0  0  0  0  0  0
  1  2  1  6
  3  2  1  1
  4  3  1  6
  4  5  1  0
  5  6  1  1
  6  7  1  0
  7  8  2  0
  8  9  1  0
  9 10  1  0
  9 11  2  0
 11 12  1  0
 12 13  1  0
 13 14  3  0
 12 15  2  0
 16  5  1  6
 16 17  1  0
 17 18  1  6
 19 18  1  6
 17  3  1  0
 15  7  1  0
M  END
$$$$
