_rank9
     RDKit          3D

 19 20  0  0  0  0  0  0  0  0999 V2000
   26.4230   -0.9341  -13.3555 C   0  0  0  0  0  0  0  0  0  0  0  0
   27.1512   -0.3897  -12.2724 O   0  0  0  0  0  0  0  0  0  0  0  0
   26.3201   -0.4223  -11.1859 C   0  0  2  0  0  0  0  0  0  0  0  0
   25.0365    0.3691  -11.3896 C   0  0  0  0  0  0  0  0  0  0  0  0
   24.4278    0.1017   -9.9997 C   0  0  2  0  0  0  0  0  0  0  0  0
   23.2959    0.8429   -9.7713 O   0  0  0  0  0  0  0  0  0  0  0  0
   22.0049    0.3478   -9.8287 C   0  0  0  0  0  0  0  0  0  0  0  0
   21.8861   -1.0239  -10.1135 C   0  0  0  0  0  0  0  0  0  0  0  0
   20.6498   -1.5812  -10.1860 C   0  0  0  0  0  0  0  0  0  0  0  0
   20.5558   -2.9081  -10.4623 F   0  0  0  0  0  0  0  0  0  0  0  0
   19.5085   -0.8380   -9.9878 C   0  0  0  0  0  0  0  0  0  0  0  0
   19.6353    0.5063   -9.7091 C   0  0  0  0  0  0  0  0  0  0  0  0
   18.4637    1.3060   -9.4978 C   0  0  0  0  0  0  0  0  0  0  0  0
   17.4959    1.9421   -9.3282 N   0  0  0  0  0  0  0  0  0  0  0  0
   20.8782    1.1067   -9.6277 C   0  0  0  0  0  0  0  0  0  0  0  0
   25.6174    0.5333   -9.1398 C   0  0  0  0  0  0  0  0  0  0  0  0
   26.8566    0.2159   -9.9525 C   0  0  1  0  0  0  0  0  0  0  0  0
   27.7056   -0.6242   -9.2342 O   0  0  0  0  0  0  0  0  0  0  0  0
   28.3343    0.1170   -8.2479 C   0  0  0  0  0  0  0  0  0  0  0  0
  1  2  1  6
  3  2  1  6
  4  3  1  6
  4  5  1  0
  5  6  1  1
  6  7  1  0
  7  8  2  0
  8  9  1  0
  9 10  1  0
  9 11  2  0
 11 12  1  0
 12 13  1  0
 13 14  3  0
 12 15  2  0
 16  5  1  6
 16 17  1  0
 17 18  1  1
 19 18  1  6
 17  3  1  0
 15  7  1  0
M  END
$$$$
