_rank11
     RDKit          3D

 19 20  0  0  0  0  0  0  0  0999 V2000
   27.0656    1.0976   -7.9819 C   0  0  0  0  0  0  0  0  0  0  0  0
   26.9254   -0.0481   -8.7990 O   0  0  0  0  0  0  0  0  0  0  0  0
   26.0564    0.2892   -9.8006 C   0  0  2  0  0  0  0  0  0  0  0  0
   24.8654   -0.6524   -9.9027 C   0  0  0  0  0  0  0  0  0  0  0  0
   24.1833    0.0360  -11.1007 C   0  0  2  0  0  0  0  0  0  0  0  0
   23.1226   -0.6864  -11.5865 O   0  0  0  0  0  0  0  0  0  0  0  0
   21.8435   -0.6594  -11.0591 C   0  0  0  0  0  0  0  0  0  0  0  0
   21.5450    0.4359  -10.2296 C   0  0  0  0  0  0  0  0  0  0  0  0
   20.3086    0.5302   -9.6756 C   0  0  0  0  0  0  0  0  0  0  0  0
   20.0394    1.5959   -8.8770 F   0  0  0  0  0  0  0  0  0  0  0  0
   19.3388   -0.4191   -9.9049 C   0  0  0  0  0  0  0  0  0  0  0  0
   19.6411   -1.4893  -10.7197 C   0  0  0  0  0  0  0  0  0  0  0  0
   18.6506   -2.4941  -10.9768 C   0  0  0  0  0  0  0  0  0  0  0  0
   17.8566   -3.3285  -11.1855 N   0  0  0  0  0  0  0  0  0  0  0  0
   20.8894   -1.6173  -11.3003 C   0  0  0  0  0  0  0  0  0  0  0  0
   25.3779    0.0737  -12.0560 C   0  0  0  0  0  0  0  0  0  0  0  0
   26.6083    0.2027  -11.1805 C   0  0  1  0  0  0  0  0  0  0  0  0
   27.3436    1.3306  -11.5407 O   0  0  0  0  0  0  0  0  0  0  0  0
   28.3042    0.9580  -12.4659 C   0  0  0  0  0  0  0  0  0  0  0  0
  1  2  1  6
  3  2  1  1
  4  3  1  6
  4  5  1  0
  5  6  1  6
  6  7  1  0
  7  8  2  0
  8  9  1  0
  9 10  1  0
  9 11  2  0
 11 12  1  0
 12 13  1  0
 13 14  3  0
 12 15  2  0
 16  5  1  6
 16 17  1  0
 17 18  1  6
 19 18  1  6
 17  3  1  0
 15  7  1  0
M  END
$$$$
