_rank18
     RDKit          3D

 19 20  0  0  0  0  0  0  0  0999 V2000
   19.3058   -0.1772  -13.2407 C   0  0  0  0  0  0  0  0  0  0  0  0
   20.5736   -0.7551  -13.4820 O   0  0  0  0  0  0  0  0  0  0  0  0
   21.3324   -0.5135  -12.3693 C   0  0  2  0  0  0  0  0  0  0  0  0
   22.7837   -0.1901  -12.6925 C   0  0  0  0  0  0  0  0  0  0  0  0
   23.2653   -0.0131  -11.2396 C   0  0  2  0  0  0  0  0  0  0  0  0
   24.6279    0.1228  -11.1515 O   0  0  0  0  0  0  0  0  0  0  0  0
   25.3474    0.0979   -9.9697 C   0  0  0  0  0  0  0  0  0  0  0  0
   24.5868    0.0122   -8.7902 C   0  0  0  0  0  0  0  0  0  0  0  0
   25.2240   -0.0168   -7.5912 C   0  0  0  0  0  0  0  0  0  0  0  0
   24.4717   -0.0999   -6.4630 F   0  0  0  0  0  0  0  0  0  0  0  0
   26.5963    0.0355   -7.4999 C   0  0  0  0  0  0  0  0  0  0  0  0
   27.3333    0.1194   -8.6621 C   0  0  0  0  0  0  0  0  0  0  0  0
   28.7650    0.1754   -8.5980 C   0  0  0  0  0  0  0  0  0  0  0  0
   29.9322    0.2251   -8.5257 N   0  0  0  0  0  0  0  0  0  0  0  0
   26.7178    0.1512   -9.8998 C   0  0  0  0  0  0  0  0  0  0  0  0
   22.7504   -1.3335  -10.6633 C   0  0  0  0  0  0  0  0  0  0  0  0
   21.4961   -1.6690  -11.4450 C   0  0  1  0  0  0  0  0  0  0  0  0
   20.4142   -1.8280  -10.5809 O   0  0  0  0  0  0  0  0  0  0  0  0
   20.0978   -3.1742  -10.5079 C   0  0  0  0  0  0  0  0  0  0  0  0
  1  2  1  6
  3  2  1  6
  4  3  1  6
  4  5  1  0
  5  6  1  6
  6  7  1  0
  7  8  2  0
  8  9  1  0
  9 10  1  0
  9 11  2  0
 11 12  1  0
 12 13  1  0
 13 14  3  0
 12 15  2  0
 16  5  1  6
 16 17  1  0
 17 18  1  1
 19 18  1  6
 17  3  1  0
 15  7  1  0
M  END
$$$$
