_rank17
     RDKit          3D

 19 20  0  0  0  0  0  0  0  0999 V2000
   28.7302   -0.1414  -11.0878 C   0  0  0  0  0  0  0  0  0  0  0  0
   28.3740    1.1748  -11.4625 O   0  0  0  0  0  0  0  0  0  0  0  0
   27.0528    1.3294  -11.1418 C   0  0  2  0  0  0  0  0  0  0  0  0
   26.1467    0.3211  -11.8329 C   0  0  0  0  0  0  0  0  0  0  0  0
   24.8163    0.8296  -11.2450 C   0  0  2  0  0  0  0  0  0  0  0  0
   23.7251    0.2263  -11.8178 O   0  0  0  0  0  0  0  0  0  0  0  0
   22.7960   -0.5363  -11.1320 C   0  0  0  0  0  0  0  0  0  0  0  0
   23.0389   -0.7098   -9.7580 C   0  0  0  0  0  0  0  0  0  0  0  0
   22.1698   -1.4466   -9.0190 C   0  0  0  0  0  0  0  0  0  0  0  0
   22.4218   -1.6027   -7.6932 F   0  0  0  0  0  0  0  0  0  0  0  0
   21.0559   -2.0287   -9.5800 C   0  0  0  0  0  0  0  0  0  0  0  0
   20.8263   -1.8528  -10.9281 C   0  0  0  0  0  0  0  0  0  0  0  0
   19.6737   -2.4474  -11.5403 C   0  0  0  0  0  0  0  0  0  0  0  0
   18.7214   -2.9253  -12.0250 N   0  0  0  0  0  0  0  0  0  0  0  0
   21.6901   -1.1090  -11.7107 C   0  0  0  0  0  0  0  0  0  0  0  0
   24.9521    2.3087  -11.6121 C   0  0  0  0  0  0  0  0  0  0  0  0
   26.4364    2.6128  -11.5766 C   0  0  1  0  0  0  0  0  0  0  0  0
   26.6953    3.6626  -10.6972 O   0  0  0  0  0  0  0  0  0  0  0  0
   26.0125    4.7859  -11.1327 C   0  0  0  0  0  0  0  0  0  0  0  0
  1  2  1  6
  3  2  1  6
  4  3  1  6
  4  5  1  0
  5  6  1  6
  6  7  1  0
  7  8  2  0
  8  9  1  0
  9 10  1  0
  9 11  2  0
 11 12  1  0
 12 13  1  0
 13 14  3  0
 12 15  2  0
 16  5  1  6
 16 17  1  0
 17 18  1  1
 19 18  1  6
 17  3  1  0
 15  7  1  0
M  END
$$$$
