_rank12
     RDKit          3D

 19 20  0  0  0  0  0  0  0  0999 V2000
   27.1134    1.7664   -8.1136 C   0  0  0  0  0  0  0  0  0  0  0  0
   27.2659    0.5012   -8.7265 O   0  0  0  0  0  0  0  0  0  0  0  0
   26.3105    0.4213   -9.7029 C   0  0  2  0  0  0  0  0  0  0  0  0
   25.1780   -0.5339   -9.3561 C   0  0  0  0  0  0  0  0  0  0  0  0
   24.3730   -0.3517  -10.6572 C   0  0  2  0  0  0  0  0  0  0  0  0
   23.3298   -1.2375  -10.7570 O   0  0  0  0  0  0  0  0  0  0  0  0
   21.9933   -0.8804  -10.7906 C   0  0  0  0  0  0  0  0  0  0  0  0
   21.2852   -1.2617  -11.9439 C   0  0  0  0  0  0  0  0  0  0  0  0
   19.9686   -0.9456  -12.0482 C   0  0  0  0  0  0  0  0  0  0  0  0
   19.3017   -1.3228  -13.1702 F   0  0  0  0  0  0  0  0  0  0  0  0
   19.3080   -0.2610  -11.0536 C   0  0  0  0  0  0  0  0  0  0  0  0
   20.0109    0.1086   -9.9266 C   0  0  0  0  0  0  0  0  0  0  0  0
   19.3490    0.8229   -8.8737 C   0  0  0  0  0  0  0  0  0  0  0  0
   18.8246    1.4187   -8.0135 N   0  0  0  0  0  0  0  0  0  0  0  0
   21.3522   -0.1966   -9.7869 C   0  0  0  0  0  0  0  0  0  0  0  0
   25.4944   -0.6218  -11.6623 C   0  0  0  0  0  0  0  0  0  0  0  0
   26.7711   -0.1411  -11.0021 C   0  0  1  0  0  0  0  0  0  0  0  0
   27.4065    0.8039  -11.8057 O   0  0  0  0  0  0  0  0  0  0  0  0
   28.0728    0.1446  -12.8249 C   0  0  0  0  0  0  0  0  0  0  0  0
  1  2  1  6
  3  2  1  1
  4  3  1  6
  4  5  1  0
  5  6  1  1
  6  7  1  0
  7  8  2  0
  8  9  1  0
  9 10  1  0
  9 11  2  0
 11 12  1  0
 12 13  1  0
 13 14  3  0
 12 15  2  0
 16  5  1  6
 16 17  1  0
 17 18  1  6
 19 18  1  6
 17  3  1  0
 15  7  1  0
M  END
$$$$
