_rank19
     RDKit          3D

 19 20  0  0  0  0  0  0  0  0999 V2000
   29.0641    0.9347  -12.1040 C   0  0  0  0  0  0  0  0  0  0  0  0
   28.4765    0.0572  -11.1635 O   0  0  0  0  0  0  0  0  0  0  0  0
   27.1224    0.2287  -11.2606 C   0  0  2  0  0  0  0  0  0  0  0  0
   26.3295   -0.9703  -10.7616 C   0  0  0  0  0  0  0  0  0  0  0  0
   24.9268   -0.4013  -11.0493 C   0  0  2  0  0  0  0  0  0  0  0  0
   23.9356   -1.3330  -10.8689 O   0  0  0  0  0  0  0  0  0  0  0  0
   22.7057   -1.0730  -10.2903 C   0  0  0  0  0  0  0  0  0  0  0  0
   21.6728   -0.7214  -11.1771 C   0  0  0  0  0  0  0  0  0  0  0  0
   20.4372   -0.4519  -10.6820 C   0  0  0  0  0  0  0  0  0  0  0  0
   19.4524   -0.1140  -11.5548 F   0  0  0  0  0  0  0  0  0  0  0  0
   20.1689   -0.5138   -9.3335 C   0  0  0  0  0  0  0  0  0  0  0  0
   21.1883   -0.8594   -8.4720 C   0  0  0  0  0  0  0  0  0  0  0  0
   20.9384   -0.9321   -7.0617 C   0  0  0  0  0  0  0  0  0  0  0  0
   20.7500   -1.0044   -5.9087 N   0  0  0  0  0  0  0  0  0  0  0  0
   22.4582   -1.1403   -8.9412 C   0  0  0  0  0  0  0  0  0  0  0  0
   25.1317   -0.0120  -12.5146 C   0  0  0  0  0  0  0  0  0  0  0  0
   26.5939    0.3644  -12.6458 C   0  0  1  0  0  0  0  0  0  0  0  0
   26.7183    1.6586  -13.1477 O   0  0  0  0  0  0  0  0  0  0  0  0
   25.5510    1.9908  -13.8146 C   0  0  0  0  0  0  0  0  0  0  0  0
  1  2  1  6
  3  2  1  6
  4  3  1  6
  4  5  1  0
  5  6  1  6
  6  7  1  0
  7  8  2  0
  8  9  1  0
  9 10  1  0
  9 11  2  0
 11 12  1  0
 12 13  1  0
 13 14  3  0
 12 15  2  0
 16  5  1  6
 16 17  1  0
 17 18  1  1
 19 18  1  6
 17  3  1  0
 15  7  1  0
M  END
$$$$
