_rank2
     RDKit          3D

 19 20  0  0  0  0  0  0  0  0999 V2000
   28.1105   -0.6165   -8.3613 C   0  0  0  0  0  0  0  0  0  0  0  0
   27.9596   -0.0653   -9.6548 O   0  0  0  0  0  0  0  0  0  0  0  0
   26.6221    0.1654   -9.8286 C   0  0  2  0  0  0  0  0  0  0  0  0
   25.7416   -0.8606   -9.1305 C   0  0  0  0  0  0  0  0  0  0  0  0
   24.3857   -0.2757   -9.5707 C   0  0  2  0  0  0  0  0  0  0  0  0
   23.3317   -1.0913   -9.2440 O   0  0  0  0  0  0  0  0  0  0  0  0
   22.0351   -0.9229   -9.6973 C   0  0  0  0  0  0  0  0  0  0  0  0
   21.4950   -1.9982  -10.4245 C   0  0  0  0  0  0  0  0  0  0  0  0
   20.2270   -1.9054  -10.9017 C   0  0  0  0  0  0  0  0  0  0  0  0
   19.7229   -2.9549  -11.6019 F   0  0  0  0  0  0  0  0  0  0  0  0
   19.4554   -0.7851  -10.6921 C   0  0  0  0  0  0  0  0  0  0  0  0
   19.9939    0.2641   -9.9779 C   0  0  0  0  0  0  0  0  0  0  0  0
   19.2135    1.4444   -9.7437 C   0  0  0  0  0  0  0  0  0  0  0  0
   18.5861    2.4102   -9.5346 N   0  0  0  0  0  0  0  0  0  0  0  0
   21.2814    0.2038   -9.4774 C   0  0  0  0  0  0  0  0  0  0  0  0
   24.6461   -0.1975  -11.0764 C   0  0  0  0  0  0  0  0  0  0  0  0
   26.1324    0.0560  -11.2302 C   0  0  1  0  0  0  0  0  0  0  0  0
   26.3524    1.2152  -11.9720 O   0  0  0  0  0  0  0  0  0  0  0  0
   26.8909    0.8627  -13.1981 C   0  0  0  0  0  0  0  0  0  0  0  0
  1  2  1  6
  3  2  1  6
  4  3  1  6
  4  5  1  0
  5  6  1  6
  6  7  1  0
  7  8  2  0
  8  9  1  0
  9 10  1  0
  9 11  2  0
 11 12  1  0
 12 13  1  0
 13 14  3  0
 12 15  2  0
 16  5  1  6
 16 17  1  0
 17 18  1  6
 19 18  1  6
 17  3  1  0
 15  7  1  0
M  END
$$$$
