_rank15
     RDKit          3D

 19 20  0  0  0  0  0  0  0  0999 V2000
   28.2792    0.8959  -13.4310 C   0  0  0  0  0  0  0  0  0  0  0  0
   28.2833    0.8600  -12.0174 O   0  0  0  0  0  0  0  0  0  0  0  0
   27.1898    0.1286  -11.6410 C   0  0  2  0  0  0  0  0  0  0  0  0
   25.8705    0.8190  -11.9543 C   0  0  0  0  0  0  0  0  0  0  0  0
   24.9461   -0.2740  -11.3843 C   0  0  2  0  0  0  0  0  0  0  0  0
   23.6316    0.1179  -11.3467 O   0  0  0  0  0  0  0  0  0  0  0  0
   22.5626   -0.7307  -11.1185 C   0  0  0  0  0  0  0  0  0  0  0  0
   21.9907   -1.3177  -12.2609 C   0  0  0  0  0  0  0  0  0  0  0  0
   20.9372   -2.1623  -12.1153 C   0  0  0  0  0  0  0  0  0  0  0  0
   20.3984   -2.7196  -13.2311 F   0  0  0  0  0  0  0  0  0  0  0  0
   20.4138   -2.4594  -10.8775 C   0  0  0  0  0  0  0  0  0  0  0  0
   20.9815   -1.8788   -9.7633 C   0  0  0  0  0  0  0  0  0  0  0  0
   20.4575   -2.1696   -8.4604 C   0  0  0  0  0  0  0  0  0  0  0  0
   20.0211   -2.4240   -7.4044 N   0  0  0  0  0  0  0  0  0  0  0  0
   22.0549   -1.0143   -9.8744 C   0  0  0  0  0  0  0  0  0  0  0  0
   25.5770   -0.4096   -9.9971 C   0  0  0  0  0  0  0  0  0  0  0  0
   27.0504   -0.1036  -10.1771 C   0  0  1  0  0  0  0  0  0  0  0  0
   27.8259   -1.1685   -9.7221 O   0  0  0  0  0  0  0  0  0  0  0  0
   27.6727   -1.2754   -8.3499 C   0  0  0  0  0  0  0  0  0  0  0  0
  1  2  1  6
  3  2  1  1
  4  3  1  6
  4  5  1  0
  5  6  1  1
  6  7  1  0
  7  8  2  0
  8  9  1  0
  9 10  1  0
  9 11  2  0
 11 12  1  0
 12 13  1  0
 13 14  3  0
 12 15  2  0
 16  5  1  6
 16 17  1  0
 17 18  1  6
 19 18  1  6
 17  3  1  0
 15  7  1  0
M  END
$$$$
