_rank10
     RDKit          3D

 19 20  0  0  0  0  0  0  0  0999 V2000
   28.8708   -0.2535  -11.1221 C   0  0  0  0  0  0  0  0  0  0  0  0
   27.8054   -0.6774  -11.9497 O   0  0  0  0  0  0  0  0  0  0  0  0
   26.6833   -0.6923  -11.1668 C   0  0  2  0  0  0  0  0  0  0  0  0
   25.5114    0.0559  -11.7852 C   0  0  0  0  0  0  0  0  0  0  0  0
   24.5120   -0.1764  -10.6357 C   0  0  2  0  0  0  0  0  0  0  0  0
   23.3537    0.5418  -10.7945 O   0  0  0  0  0  0  0  0  0  0  0  0
   22.0805    0.0381  -10.5938 C   0  0  0  0  0  0  0  0  0  0  0  0
   21.7956   -1.1816  -11.2327 C   0  0  0  0  0  0  0  0  0  0  0  0
   20.5658   -1.7376  -11.0817 C   0  0  0  0  0  0  0  0  0  0  0  0
   20.3099   -2.9163  -11.7069 F   0  0  0  0  0  0  0  0  0  0  0  0
   19.5896   -1.1381  -10.3189 C   0  0  0  0  0  0  0  0  0  0  0  0
   19.8785    0.0577   -9.6965 C   0  0  0  0  0  0  0  0  0  0  0  0
   18.8810    0.7056   -8.8952 C   0  0  0  0  0  0  0  0  0  0  0  0
   18.0815    1.2461   -8.2328 N   0  0  0  0  0  0  0  0  0  0  0  0
   21.1199    0.6522   -9.8283 C   0  0  0  0  0  0  0  0  0  0  0  0
   25.3766    0.3188   -9.4746 C   0  0  0  0  0  0  0  0  0  0  0  0
   26.8090    0.0054   -9.8577 C   0  0  1  0  0  0  0  0  0  0  0  0
   27.4109   -0.7843   -8.8796 O   0  0  0  0  0  0  0  0  0  0  0  0
   27.8909    0.0402   -7.8760 C   0  0  0  0  0  0  0  0  0  0  0  0
  1  2  1  6
  3  2  1  6
  4  3  1  6
  4  5  1  0
  5  6  1  6
  6  7  1  0
  7  8  2  0
  8  9  1  0
  9 10  1  0
  9 11  2  0
 11 12  1  0
 12 13  1  0
 13 14  3  0
 12 15  2  0
 16  5  1  6
 16 17  1  0
 17 18  1  1
 19 18  1  6
 17  3  1  0
 15  7  1  0
M  END
$$$$
