_rank4
     RDKit          3D

 19 20  0  0  0  0  0  0  0  0999 V2000
   28.1299    0.0362   -8.6263 C   0  0  0  0  0  0  0  0  0  0  0  0
   27.1758   -0.8793   -9.1276 O   0  0  0  0  0  0  0  0  0  0  0  0
   26.2361   -0.1403   -9.7934 C   0  0  2  0  0  0  0  0  0  0  0  0
   24.9728   -0.9258  -10.1133 C   0  0  0  0  0  0  0  0  0  0  0  0
   24.2250    0.2083  -10.8404 C   0  0  2  0  0  0  0  0  0  0  0  0
   23.0678   -0.2247  -11.4374 O   0  0  0  0  0  0  0  0  0  0  0  0
   21.8415   -0.3186  -10.8031 C   0  0  0  0  0  0  0  0  0  0  0  0
   21.4347   -1.6155  -10.4434 C   0  0  0  0  0  0  0  0  0  0  0  0
   20.2418   -1.7863   -9.8171 C   0  0  0  0  0  0  0  0  0  0  0  0
   19.8664   -3.0471   -9.4774 F   0  0  0  0  0  0  0  0  0  0  0  0
   19.4194   -0.7221   -9.5247 C   0  0  0  0  0  0  0  0  0  0  0  0
   19.8270    0.5457   -9.8816 C   0  0  0  0  0  0  0  0  0  0  0  0
   18.9909    1.6738   -9.5898 C   0  0  0  0  0  0  0  0  0  0  0  0
   18.3053    2.5971   -9.3717 N   0  0  0  0  0  0  0  0  0  0  0  0
   21.0351    0.7564  -10.5203 C   0  0  0  0  0  0  0  0  0  0  0  0
   25.3138    0.5974  -11.8424 C   0  0  0  0  0  0  0  0  0  0  0  0
   26.6343    0.3255  -11.1502 C   0  0  1  0  0  0  0  0  0  0  0  0
   27.4122    1.4815  -11.1185 O   0  0  0  0  0  0  0  0  0  0  0  0
   27.9619    1.6818  -12.3736 C   0  0  0  0  0  0  0  0  0  0  0  0
  1  2  1  6
  3  2  1  6
  4  3  1  6
  4  5  1  0
  5  6  1  6
  6  7  1  0
  7  8  2  0
  8  9  1  0
  9 10  1  0
  9 11  2  0
 11 12  1  0
 12 13  1  0
 13 14  3  0
 12 15  2  0
 16  5  1  6
 16 17  1  0
 17 18  1  1
 19 18  1  6
 17  3  1  0
 15  7  1  0
M  END
$$$$
