_rank1
     RDKit          3D

 19 20  0  0  0  0  0  0  0  0999 V2000
   28.0285    0.3075   -8.2914 C   0  0  0  0  0  0  0  0  0  0  0  0
   27.9215    0.3203   -9.7014 O   0  0  0  0  0  0  0  0  0  0  0  0
   26.5906    0.4484   -9.9921 C   0  0  2  0  0  0  0  0  0  0  0  0
   25.7300   -0.6274   -9.3459 C   0  0  0  0  0  0  0  0  0  0  0  0
   24.3781   -0.1522   -9.9120 C   0  0  2  0  0  0  0  0  0  0  0  0
   23.3616   -1.0375   -9.6553 O   0  0  0  0  0  0  0  0  0  0  0  0
   22.0375   -0.8399  -10.0056 C   0  0  0  0  0  0  0  0  0  0  0  0
   21.4289   -1.8876  -10.7190 C   0  0  0  0  0  0  0  0  0  0  0  0
   20.1302   -1.7653  -11.0972 C   0  0  0  0  0  0  0  0  0  0  0  0
   19.5600   -2.7883  -11.7857 F   0  0  0  0  0  0  0  0  0  0  0  0
   19.3931   -0.6415  -10.8003 C   0  0  0  0  0  0  0  0  0  0  0  0
   19.9987    0.3803  -10.1004 C   0  0  0  0  0  0  0  0  0  0  0  0
   19.2555    1.5634   -9.7767 C   0  0  0  0  0  0  0  0  0  0  0  0
   18.6324    2.5208   -9.5213 N   0  0  0  0  0  0  0  0  0  0  0  0
   21.3189    0.2897   -9.6996 C   0  0  0  0  0  0  0  0  0  0  0  0
   24.7596   -0.0815  -11.3920 C   0  0  0  0  0  0  0  0  0  0  0  0
   26.2314    0.2783  -11.4268 C   0  0  1  0  0  0  0  0  0  0  0  0
   26.4297    1.4373  -12.1751 O   0  0  0  0  0  0  0  0  0  0  0  0
   27.2126    1.1279  -13.2746 C   0  0  0  0  0  0  0  0  0  0  0  0
  1  2  1  6
  3  2  1  6
  4  3  1  6
  4  5  1  0
  5  6  1  6
  6  7  1  0
  7  8  2  0
  8  9  1  0
  9 10  1  0
  9 11  2  0
 11 12  1  0
 12 13  1  0
 13 14  3  0
 12 15  2  0
 16  5  1  6
 16 17  1  0
 17 18  1  6
 19 18  1  6
 17  3  1  0
 15  7  1  0
M  END
$$$$
