_rank17
     RDKit          3D

 23 25  0  0  0  0  0  0  0  0999 V2000
   -1.0634  -26.8917   34.8458 C   0  0  0  0  0  0  0  0  0  0  0  0
   -0.3138  -27.0554   36.1692 C   0  0  0  0  0  0  0  0  0  0  0  0
    0.4525  -28.2616   36.2140 N   0  0  0  0  0  0  0  0  0  0  0  0
    1.5032  -28.4628   35.2548 C   0  0  0  0  0  0  0  0  0  0  0  0
    1.2307  -29.5810   34.2976 C   0  0  0  0  0  0  0  0  0  0  0  0
    0.1794  -29.2469   37.1918 C   0  0  0  0  0  0  0  0  0  0  0  0
   -0.8567  -29.9500   37.0648 O   0  0  0  0  0  0  0  0  0  0  0  0
    1.0255  -29.4802   38.3174 N   0  0  0  0  0  0  0  0  0  0  0  0
    0.7090  -30.4857   39.3346 C   0  0  2  0  0  0  0  0  0  0  0  0
    0.3787  -29.7804   40.6563 C   0  0  0  0  0  0  0  0  0  0  0  0
    1.2516  -30.4027   41.6960 C   0  0  0  0  0  0  0  0  0  0  0  0
    2.1490  -31.2846   41.0337 N   0  0  0  0  0  0  0  0  0  0  0  0
    2.4013  -32.4521   41.7869 C   0  0  0  0  0  0  0  0  0  0  0  0
    3.2781  -33.4364   40.9986 C   0  0  0  0  0  0  0  0  0  0  0  0
    2.4385  -33.7586   39.8154 C   0  0  0  0  0  0  0  0  0  0  0  0
    2.3570  -35.0854   39.3607 C   0  0  0  0  0  0  0  0  0  0  0  0
    3.0830  -36.1700   40.0214 C   0  0  0  0  0  0  0  0  0  0  0  0
    1.5702  -35.3597   38.2637 C   0  0  0  0  0  0  0  0  0  0  0  0
    0.8735  -34.3380   37.6244 C   0  0  0  0  0  0  0  0  0  0  0  0
    0.9510  -33.0461   38.0644 C   0  0  0  0  0  0  0  0  0  0  0  0
    1.7521  -32.7500   39.1859 C   0  0  0  0  0  0  0  0  0  0  0  0
    1.8559  -31.3868   39.6621 C   0  0  1  0  0  0  0  0  0  0  0  0
    3.0693  -30.7773   38.9212 C   0  0  0  0  0  0  0  0  0  0  0  0
  1  2  1  6
  2  3  1  1
  4  3  1  1
  5  4  1  6
  3  6  1  0
  6  7  2  0
  6  8  1  0
  9  8  1  6
  9 10  1  0
 10 11  1  6
 11 12  1  1
 13 12  1  1
 13 14  1  0
 14 15  1  6
 15 16  2  0
 17 16  1  1
 16 18  1  0
 18 19  2  0
 19 20  1  0
 20 21  2  0
 22 21  1  6
 23 22  1  6
 22  9  1  0
 22 12  1  0
 21 15  1  0
M  END
$$$$
