_rank4
     RDKit          3D

 23 25  0  0  0  0  0  0  0  0999 V2000
   18.4200  -41.2245   10.2092 C   0  0  0  0  0  0  0  0  0  0  0  0
   17.0307  -40.6637    9.9001 C   0  0  0  0  0  0  0  0  0  0  0  0
   15.9852  -41.5597   10.2852 N   0  0  0  0  0  0  0  0  0  0  0  0
   16.2698  -42.9633   10.4017 C   0  0  0  0  0  0  0  0  0  0  0  0
   16.3512  -43.4397   11.8184 C   0  0  0  0  0  0  0  0  0  0  0  0
   14.6843  -41.0702   10.5488 C   0  0  0  0  0  0  0  0  0  0  0  0
   13.9656  -40.7177    9.5776 O   0  0  0  0  0  0  0  0  0  0  0  0
   14.1488  -40.9571   11.8670 N   0  0  0  0  0  0  0  0  0  0  0  0
   12.7160  -41.0932   12.1400 C   0  0  2  0  0  0  0  0  0  0  0  0
   12.5205  -41.9536   13.3950 C   0  0  0  0  0  0  0  0  0  0  0  0
   11.5697  -43.0412   13.0167 C   0  0  0  0  0  0  0  0  0  0  0  0
   11.3434  -42.9479   11.6161 N   0  0  0  0  0  0  0  0  0  0  0  0
   10.0080  -43.2510   11.2710 C   0  0  0  0  0  0  0  0  0  0  0  0
    9.7636  -43.0288    9.7710 C   0  0  0  0  0  0  0  0  0  0  0  0
   10.0217  -41.5751    9.6017 C   0  0  0  0  0  0  0  0  0  0  0  0
    9.1682  -40.8066    8.7927 C   0  0  0  0  0  0  0  0  0  0  0  0
    8.0232  -41.4002    8.1025 C   0  0  0  0  0  0  0  0  0  0  0  0
    9.4264  -39.4606    8.6534 C   0  0  0  0  0  0  0  0  0  0  0  0
   10.5124  -38.8814    9.3039 C   0  0  0  0  0  0  0  0  0  0  0  0
   11.3447  -39.6267   10.0915 C   0  0  0  0  0  0  0  0  0  0  0  0
   11.0931  -41.0054   10.2438 C   0  0  0  0  0  0  0  0  0  0  0  0
   11.9681  -41.8147   11.0655 C   0  0  1  0  0  0  0  0  0  0  0  0
   13.0588  -42.3525   10.1095 C   0  0  0  0  0  0  0  0  0  0  0  0
  1  2  1  6
  2  3  1  1
  4  3  1  1
  5  4  1  6
  3  6  1  0
  6  7  2  0
  6  8  1  0
  9  8  1  6
  9 10  1  0
 10 11  1  6
 11 12  1  1
 13 12  1  1
 13 14  1  0
 14 15  1  6
 15 16  2  0
 17 16  1  1
 16 18  1  0
 18 19  2  0
 19 20  1  0
 20 21  2  0
 22 21  1  6
 23 22  1  6
 22  9  1  0
 22 12  1  0
 21 15  1  0
M  END
$$$$
