_rank7
     RDKit          3D

 23 25  0  0  0  0  0  0  0  0999 V2000
   17.9631  -42.5824    8.5214 C   0  0  0  0  0  0  0  0  0  0  0  0
   17.8215  -42.8035   10.0285 C   0  0  0  0  0  0  0  0  0  0  0  0
   16.7741  -42.0137   10.5973 N   0  0  0  0  0  0  0  0  0  0  0  0
   17.0861  -40.7235   11.1472 C   0  0  0  0  0  0  0  0  0  0  0  0
   18.5521  -40.5016   11.3530 C   0  0  0  0  0  0  0  0  0  0  0  0
   15.4447  -42.4971   10.6189 C   0  0  0  0  0  0  0  0  0  0  0  0
   15.1332  -43.3637   11.4767 O   0  0  0  0  0  0  0  0  0  0  0  0
   14.4393  -42.0470    9.7112 N   0  0  0  0  0  0  0  0  0  0  0  0
   13.4316  -41.0551   10.0944 C   0  0  2  0  0  0  0  0  0  0  0  0
   14.0161  -40.1312   11.1707 C   0  0  0  0  0  0  0  0  0  0  0  0
   13.0446  -40.1376   12.3048 C   0  0  0  0  0  0  0  0  0  0  0  0
   12.0480  -41.1089   12.0131 N   0  0  0  0  0  0  0  0  0  0  0  0
   10.7658  -40.7018   12.4424 C   0  0  0  0  0  0  0  0  0  0  0  0
    9.6942  -41.7141   12.0110 C   0  0  0  0  0  0  0  0  0  0  0  0
    9.7764  -41.6765   10.5276 C   0  0  0  0  0  0  0  0  0  0  0  0
    8.5964  -41.6760    9.7653 C   0  0  0  0  0  0  0  0  0  0  0  0
    7.2758  -41.7148   10.3934 C   0  0  0  0  0  0  0  0  0  0  0  0
    8.6982  -41.6380    8.3920 C   0  0  0  0  0  0  0  0  0  0  0  0
    9.9479  -41.6011    7.7798 C   0  0  0  0  0  0  0  0  0  0  0  0
   11.0978  -41.6016    8.5189 C   0  0  0  0  0  0  0  0  0  0  0  0
   11.0096  -41.6401    9.9254 C   0  0  0  0  0  0  0  0  0  0  0  0
   12.2153  -41.6514   10.7265 C   0  0  1  0  0  0  0  0  0  0  0  0
   12.5631  -43.1441   10.9361 C   0  0  0  0  0  0  0  0  0  0  0  0
  1  2  1  6
  2  3  1  1
  4  3  1  1
  5  4  1  6
  3  6  1  0
  6  7  2  0
  6  8  1  0
  9  8  1  1
  9 10  1  0
 10 11  1  6
 11 12  1  1
 13 12  1  1
 13 14  1  0
 14 15  1  6
 15 16  2  0
 17 16  1  1
 16 18  1  0
 18 19  2  0
 19 20  1  0
 20 21  2  0
 22 21  1  6
 23 22  1  6
 22  9  1  0
 22 12  1  0
 21 15  1  0
M  END
$$$$
