_rank6
     RDKit          3D

 23 25  0  0  0  0  0  0  0  0999 V2000
   18.1895  -44.1595   11.0180 C   0  0  0  0  0  0  0  0  0  0  0  0
   16.9757  -43.5505   10.3138 C   0  0  0  0  0  0  0  0  0  0  0  0
   16.9216  -42.1289   10.4564 N   0  0  0  0  0  0  0  0  0  0  0  0
   18.0286  -41.3341   10.0010 C   0  0  0  0  0  0  0  0  0  0  0  0
   17.6320  -39.9642    9.5462 C   0  0  0  0  0  0  0  0  0  0  0  0
   15.7906  -41.5109   11.0397 C   0  0  0  0  0  0  0  0  0  0  0  0
   15.9306  -40.3790   11.5718 O   0  0  0  0  0  0  0  0  0  0  0  0
   14.4965  -42.1129   11.0530 N   0  0  0  0  0  0  0  0  0  0  0  0
   13.2983  -41.3750   11.4602 C   0  0  2  0  0  0  0  0  0  0  0  0
   13.3517  -41.1199   12.9721 C   0  0  0  0  0  0  0  0  0  0  0  0
   12.0595  -41.6192   13.5298 C   0  0  0  0  0  0  0  0  0  0  0  0
   11.3595  -42.2715   12.4781 N   0  0  0  0  0  0  0  0  0  0  0  0
    9.9664  -42.0516   12.5490 C   0  0  0  0  0  0  0  0  0  0  0  0
    9.2500  -42.6682   11.3383 C   0  0  0  0  0  0  0  0  0  0  0  0
    9.8310  -41.9235   10.1909 C   0  0  0  0  0  0  0  0  0  0  0  0
    8.9952  -41.4892    9.1485 C   0  0  0  0  0  0  0  0  0  0  0  0
    7.5563  -41.7528    9.1568 C   0  0  0  0  0  0  0  0  0  0  0  0
    9.5565  -40.7985    8.0971 C   0  0  0  0  0  0  0  0  0  0  0  0
   10.9243  -40.5402    8.0751 C   0  0  0  0  0  0  0  0  0  0  0  0
   11.7400  -40.9617    9.0877 C   0  0  0  0  0  0  0  0  0  0  0  0
   11.1800  -41.6696   10.1706 C   0  0  0  0  0  0  0  0  0  0  0  0
   12.0277  -42.1335   11.2484 C   0  0  1  0  0  0  0  0  0  0  0  0
   12.4739  -43.5586   10.8445 C   0  0  0  0  0  0  0  0  0  0  0  0
  1  2  1  6
  2  3  1  1
  4  3  1  1
  5  4  1  6
  3  6  1  0
  6  7  2  0
  6  8  1  0
  9  8  1  1
  9 10  1  0
 10 11  1  6
 11 12  1  1
 13 12  1  1
 13 14  1  0
 14 15  1  6
 15 16  2  0
 17 16  1  1
 16 18  1  0
 18 19  2  0
 19 20  1  0
 20 21  2  0
 22 21  1  6
 23 22  1  6
 22  9  1  0
 22 12  1  0
 21 15  1  0
M  END
$$$$
