_rank5
     RDKit          3D

 15 16  0  0  0  0  0  0  0  0999 V2000
   27.3264    0.3600   -7.0186 N   0  0  0  0  0  0  0  0  0  0  0  0
   26.9210    0.2310   -8.1153 C   0  0  0  0  0  0  0  0  0  0  0  0
   26.4051    0.0646   -9.4438 C   0  0  0  0  0  0  0  0  0  0  0  0
   27.2504    0.1125  -10.5304 C   0  0  0  0  0  0  0  0  0  0  0  0
   26.7558   -0.0485  -11.8267 C   0  0  0  0  0  0  0  0  0  0  0  0
   27.6243    0.0062  -12.8642 F   0  0  0  0  0  0  0  0  0  0  0  0
   25.4012   -0.2566  -11.9922 C   0  0  0  0  0  0  0  0  0  0  0  0
   24.5333   -0.3097  -10.9323 C   0  0  0  0  0  0  0  0  0  0  0  0
   23.1088   -0.5271  -11.0868 C   0  0  1  0  0  0  0  0  0  0  0  0
   22.5882   -1.7440  -10.3392 C   0  0  0  0  0  0  0  0  0  0  0  0
   21.0933   -1.5368  -10.5059 C   0  0  1  0  0  0  0  0  0  0  0  0
   20.3746   -1.9789   -9.4391 F   0  0  0  0  0  0  0  0  0  0  0  0
   20.9564   -0.0424  -10.7339 C   0  0  0  0  0  0  0  0  0  0  0  0
   22.2796    0.5196  -10.5186 N   0  0  0  0  0  0  0  0  0  0  0  0
   25.0554   -0.1467   -9.6660 C   0  0  0  0  0  0  0  0  0  0  0  0
  1  2  3  0
  2  3  1  0
  3  4  2  0
  4  5  1  0
  5  6  1  0
  5  7  2  0
  7  8  1  0
  9  8  1  1
 10  9  1  6
 10 11  1  0
 11 12  1  1
 11 13  1  0
 13 14  1  1
  8 15  2  0
 15  3  1  0
 14  9  1  0
M  END
$$$$
