_rank6
     RDKit          3D

 15 16  0  0  0  0  0  0  0  0999 V2000
   27.7642    0.5631   -7.3191 N   0  0  0  0  0  0  0  0  0  0  0  0
   27.1746    0.3186   -8.3072 C   0  0  0  0  0  0  0  0  0  0  0  0
   26.4340    0.0204   -9.4994 C   0  0  0  0  0  0  0  0  0  0  0  0
   27.0503    0.0606  -10.7308 C   0  0  0  0  0  0  0  0  0  0  0  0
   26.3362   -0.2284  -11.8958 C   0  0  0  0  0  0  0  0  0  0  0  0
   26.9839   -0.1762  -13.0838 F   0  0  0  0  0  0  0  0  0  0  0  0
   24.9996   -0.5548  -11.7835 C   0  0  0  0  0  0  0  0  0  0  0  0
   24.3566   -0.6038  -10.5737 C   0  0  0  0  0  0  0  0  0  0  0  0
   22.9547   -0.9443  -10.4365 C   0  0  1  0  0  0  0  0  0  0  0  0
   22.0672    0.2373  -10.0800 C   0  0  0  0  0  0  0  0  0  0  0  0
   20.6991   -0.3975  -10.2553 C   0  0  1  0  0  0  0  0  0  0  0  0
   19.7609    0.4798  -10.7027 F   0  0  0  0  0  0  0  0  0  0  0  0
   20.9497   -1.5406  -11.2219 C   0  0  0  0  0  0  0  0  0  0  0  0
   22.3272   -1.3983  -11.6638 N   0  0  0  0  0  0  0  0  0  0  0  0
   25.0918   -0.3127   -9.4434 C   0  0  0  0  0  0  0  0  0  0  0  0
  1  2  3  0
  2  3  1  0
  3  4  2  0
  4  5  1  0
  5  6  1  0
  5  7  2  0
  7  8  1  0
  9  8  1  6
 10  9  1  6
 10 11  1  0
 11 12  1  6
 11 13  1  0
 13 14  1  1
  8 15  2  0
 15  3  1  0
 14  9  1  0
M  END
$$$$
