_rank15
     RDKit          3D

 15 16  0  0  0  0  0  0  0  0999 V2000
   28.8503    0.2063   -6.9965 N   0  0  0  0  0  0  0  0  0  0  0  0
   27.8799    0.1084   -7.6541 C   0  0  0  0  0  0  0  0  0  0  0  0
   26.6856    0.0073   -8.4430 C   0  0  0  0  0  0  0  0  0  0  0  0
   25.4634   -0.1798   -7.8357 C   0  0  0  0  0  0  0  0  0  0  0  0
   24.2964   -0.2792   -8.5967 C   0  0  0  0  0  0  0  0  0  0  0  0
   23.1175   -0.4629   -7.9562 F   0  0  0  0  0  0  0  0  0  0  0  0
   24.3974   -0.1856   -9.9702 C   0  0  0  0  0  0  0  0  0  0  0  0
   25.5980    0.0004  -10.6054 C   0  0  0  0  0  0  0  0  0  0  0  0
   25.7234    0.1009  -12.0458 C   0  0  1  0  0  0  0  0  0  0  0  0
   25.0637    1.3370  -12.6354 C   0  0  0  0  0  0  0  0  0  0  0  0
   25.5798    1.2573  -14.0611 C   0  0  1  0  0  0  0  0  0  0  0  0
   25.7807    2.4802  -14.6214 F   0  0  0  0  0  0  0  0  0  0  0  0
   26.8558    0.4441  -13.9411 C   0  0  0  0  0  0  0  0  0  0  0  0
   27.0860    0.2659  -12.5169 N   0  0  0  0  0  0  0  0  0  0  0  0
   26.7305    0.0943   -9.8236 C   0  0  0  0  0  0  0  0  0  0  0  0
  1  2  3  0
  2  3  1  0
  3  4  2  0
  4  5  1  0
  5  6  1  0
  5  7  2  0
  7  8  1  0
  9  8  1  1
 10  9  1  6
 10 11  1  0
 11 12  1  1
 11 13  1  0
 13 14  1  1
  8 15  2  0
 15  3  1  0
 14  9  1  0
M  END
$$$$
