_rank4
     RDKit          3D

 15 16  0  0  0  0  0  0  0  0999 V2000
   27.8797    0.4449   -7.4633 N   0  0  0  0  0  0  0  0  0  0  0  0
   27.2223    0.2739   -8.4238 C   0  0  0  0  0  0  0  0  0  0  0  0
   26.4366    0.0477   -9.6028 C   0  0  0  0  0  0  0  0  0  0  0  0
   27.0039    0.1703  -10.8521 C   0  0  0  0  0  0  0  0  0  0  0  0
   26.2456   -0.0482  -12.0046 C   0  0  0  0  0  0  0  0  0  0  0  0
   26.8460    0.0837  -13.2112 F   0  0  0  0  0  0  0  0  0  0  0  0
   24.9157   -0.3895  -11.8614 C   0  0  0  0  0  0  0  0  0  0  0  0
   24.3210   -0.5195  -10.6331 C   0  0  0  0  0  0  0  0  0  0  0  0
   22.9267   -0.8768  -10.4634 C   0  0  1  0  0  0  0  0  0  0  0  0
   21.9941    0.3191  -10.3589 C   0  0  0  0  0  0  0  0  0  0  0  0
   20.6513   -0.3852  -10.4388 C   0  0  1  0  0  0  0  0  0  0  0  0
   19.6997    0.3571  -11.0660 F   0  0  0  0  0  0  0  0  0  0  0  0
   20.9635   -1.6821  -11.1630 C   0  0  0  0  0  0  0  0  0  0  0  0
   22.3478   -1.5782  -11.5942 N   0  0  0  0  0  0  0  0  0  0  0  0
   25.0989   -0.2966   -9.5160 C   0  0  0  0  0  0  0  0  0  0  0  0
  1  2  3  0
  2  3  1  0
  3  4  2  0
  4  5  1  0
  5  6  1  0
  5  7  2  0
  7  8  1  0
  9  8  1  6
 10  9  1  6
 10 11  1  0
 11 12  1  6
 11 13  1  0
 13 14  1  1
  8 15  2  0
 15  3  1  0
 14  9  1  0
M  END
$$$$
