_rank10
     RDKit          3D

 15 16  0  0  0  0  0  0  0  0999 V2000
   27.8650    0.7796   -6.9729 N   0  0  0  0  0  0  0  0  0  0  0  0
   27.3062    0.3882   -7.9312 C   0  0  0  0  0  0  0  0  0  0  0  0
   26.6292   -0.0673   -9.1114 C   0  0  0  0  0  0  0  0  0  0  0  0
   27.3428   -0.3745  -10.2490 C   0  0  0  0  0  0  0  0  0  0  0  0
   26.6911   -0.8185  -11.4018 C   0  0  0  0  0  0  0  0  0  0  0  0
   27.4338   -1.1085  -12.4963 F   0  0  0  0  0  0  0  0  0  0  0  0
   25.3165   -0.9419  -11.3735 C   0  0  0  0  0  0  0  0  0  0  0  0
   24.5771   -0.6445  -10.2580 C   0  0  0  0  0  0  0  0  0  0  0  0
   23.1339   -0.7679  -10.2098 C   0  0  1  0  0  0  0  0  0  0  0  0
   22.4494   -0.5002  -11.5404 C   0  0  0  0  0  0  0  0  0  0  0  0
   21.0362   -0.9421  -11.2042 C   0  0  1  0  0  0  0  0  0  0  0  0
   20.3859   -1.4914  -12.2650 F   0  0  0  0  0  0  0  0  0  0  0  0
   21.2235   -1.9163  -10.0553 C   0  0  0  0  0  0  0  0  0  0  0  0
   22.6581   -2.1082   -9.9212 N   0  0  0  0  0  0  0  0  0  0  0  0
   25.2527   -0.2088   -9.1371 C   0  0  0  0  0  0  0  0  0  0  0  0
  1  2  3  0
  2  3  1  0
  3  4  2  0
  4  5  1  0
  5  6  1  0
  5  7  2  0
  7  8  1  0
  9  8  1  6
 10  9  1  6
 10 11  1  0
 11 12  1  6
 11 13  1  0
 13 14  1  1
  8 15  2  0
 15  3  1  0
 14  9  1  0
M  END
$$$$
