_rank7
     RDKit          3D

 15 16  0  0  0  0  0  0  0  0999 V2000
   27.2553    0.5499   -7.0696 N   0  0  0  0  0  0  0  0  0  0  0  0
   26.8347    0.2667   -8.1310 C   0  0  0  0  0  0  0  0  0  0  0  0
   26.3005   -0.0665   -9.4204 C   0  0  0  0  0  0  0  0  0  0  0  0
   27.1438   -0.3667  -10.4674 C   0  0  0  0  0  0  0  0  0  0  0  0
   26.6315   -0.6920  -11.7254 C   0  0  0  0  0  0  0  0  0  0  0  0
   27.4987   -0.9800  -12.7247 F   0  0  0  0  0  0  0  0  0  0  0  0
   25.2614   -0.7052  -11.8937 C   0  0  0  0  0  0  0  0  0  0  0  0
   24.3950   -0.4114  -10.8727 C   0  0  0  0  0  0  0  0  0  0  0  0
   22.9544   -0.4202  -11.0308 C   0  0  1  0  0  0  0  0  0  0  0  0
   22.3640   -1.8098  -11.2076 C   0  0  0  0  0  0  0  0  0  0  0  0
   20.8850   -1.4845  -11.0969 C   0  0  1  0  0  0  0  0  0  0  0  0
   20.1646   -2.4823  -10.5179 F   0  0  0  0  0  0  0  0  0  0  0  0
   20.8553   -0.1933  -10.2995 C   0  0  0  0  0  0  0  0  0  0  0  0
   22.2227    0.0427   -9.8662 N   0  0  0  0  0  0  0  0  0  0  0  0
   24.9348   -0.0945   -9.6435 C   0  0  0  0  0  0  0  0  0  0  0  0
  1  2  3  0
  2  3  1  0
  3  4  2  0
  4  5  1  0
  5  6  1  0
  5  7  2  0
  7  8  1  0
  9  8  1  1
 10  9  1  6
 10 11  1  0
 11 12  1  1
 11 13  1  0
 13 14  1  1
  8 15  2  0
 15  3  1  0
 14  9  1  0
M  END
$$$$
