_rank16
     RDKit          3D

 15 16  0  0  0  0  0  0  0  0999 V2000
   27.9789    0.0962   -6.6067 N   0  0  0  0  0  0  0  0  0  0  0  0
   27.1454    0.0649   -7.4362 C   0  0  0  0  0  0  0  0  0  0  0  0
   26.1180    0.0468   -8.4376 C   0  0  0  0  0  0  0  0  0  0  0  0
   24.8631   -0.4371   -8.1395 C   0  0  0  0  0  0  0  0  0  0  0  0
   23.8577   -0.4581   -9.1088 C   0  0  0  0  0  0  0  0  0  0  0  0
   22.6396   -0.9429   -8.7700 F   0  0  0  0  0  0  0  0  0  0  0  0
   24.1517    0.0172  -10.3711 C   0  0  0  0  0  0  0  0  0  0  0  0
   25.3898    0.5053  -10.7001 C   0  0  0  0  0  0  0  0  0  0  0  0
   25.7166    1.0081  -12.0194 C   0  0  1  0  0  0  0  0  0  0  0  0
   26.7049    0.1397  -12.7808 C   0  0  0  0  0  0  0  0  0  0  0  0
   26.6314    0.7933  -14.1493 C   0  0  1  0  0  0  0  0  0  0  0  0
   26.7984   -0.0912  -15.1690 F   0  0  0  0  0  0  0  0  0  0  0  0
   25.2679    1.4601  -14.1611 C   0  0  0  0  0  0  0  0  0  0  0  0
   24.5990    1.0281  -12.9450 N   0  0  0  0  0  0  0  0  0  0  0  0
   26.3593    0.5114   -9.7189 C   0  0  0  0  0  0  0  0  0  0  0  0
  1  2  3  0
  2  3  1  0
  3  4  2  0
  4  5  1  0
  5  6  1  0
  5  7  2  0
  7  8  1  0
  9  8  1  1
 10  9  1  6
 10 11  1  0
 11 12  1  6
 11 13  1  0
 13 14  1  1
  8 15  2  0
 15  3  1  0
 14  9  1  0
M  END
$$$$
