_rank2
     RDKit          3D

 15 16  0  0  0  0  0  0  0  0999 V2000
   27.3522    0.0205   -7.1443 N   0  0  0  0  0  0  0  0  0  0  0  0
   26.9061   -0.0225   -8.2320 C   0  0  0  0  0  0  0  0  0  0  0  0
   26.3517   -0.0973   -9.5533 C   0  0  0  0  0  0  0  0  0  0  0  0
   27.1668    0.0158  -10.6581 C   0  0  0  0  0  0  0  0  0  0  0  0
   26.6347   -0.0559  -11.9475 C   0  0  0  0  0  0  0  0  0  0  0  0
   27.4744    0.0605  -13.0035 F   0  0  0  0  0  0  0  0  0  0  0  0
   25.2741   -0.2425  -12.0877 C   0  0  0  0  0  0  0  0  0  0  0  0
   24.4358   -0.3588  -11.0092 C   0  0  0  0  0  0  0  0  0  0  0  0
   23.0056   -0.5549  -11.1370 C   0  0  1  0  0  0  0  0  0  0  0  0
   22.5176   -1.8897  -10.5976 C   0  0  0  0  0  0  0  0  0  0  0  0
   21.0170   -1.6665  -10.6581 C   0  0  1  0  0  0  0  0  0  0  0  0
   20.3463   -2.2977   -9.6572 F   0  0  0  0  0  0  0  0  0  0  0  0
   20.8716   -0.1565  -10.6079 C   0  0  0  0  0  0  0  0  0  0  0  0
   22.2037    0.3671  -10.3540 N   0  0  0  0  0  0  0  0  0  0  0  0
   24.9945   -0.2834   -9.7503 C   0  0  0  0  0  0  0  0  0  0  0  0
  1  2  3  0
  2  3  1  0
  3  4  2  0
  4  5  1  0
  5  6  1  0
  5  7  2  0
  7  8  1  0
  9  8  1  1
 10  9  1  6
 10 11  1  0
 11 12  1  1
 11 13  1  0
 13 14  1  1
  8 15  2  0
 15  3  1  0
 14  9  1  0
M  END
$$$$
