_rank3
     RDKit          3D

 15 16  0  0  0  0  0  0  0  0999 V2000
   28.2235    0.0473   -7.3819 N   0  0  0  0  0  0  0  0  0  0  0  0
   27.5614   -0.0371   -8.3505 C   0  0  0  0  0  0  0  0  0  0  0  0
   26.7460   -0.1165   -9.5285 C   0  0  0  0  0  0  0  0  0  0  0  0
   27.2815    0.1630  -10.7665 C   0  0  0  0  0  0  0  0  0  0  0  0
   26.4942    0.0880  -11.9178 C   0  0  0  0  0  0  0  0  0  0  0  0
   27.0638    0.3716  -13.1131 F   0  0  0  0  0  0  0  0  0  0  0  0
   25.1683   -0.2725  -11.7850 C   0  0  0  0  0  0  0  0  0  0  0  0
   24.6049   -0.5569  -10.5680 C   0  0  0  0  0  0  0  0  0  0  0  0
   23.2153   -0.9369  -10.4094 C   0  0  1  0  0  0  0  0  0  0  0  0
   22.2886    0.2312  -10.1138 C   0  0  0  0  0  0  0  0  0  0  0  0
   20.9426   -0.4579  -10.2517 C   0  0  1  0  0  0  0  0  0  0  0  0
   19.9750    0.3622  -10.7426 F   0  0  0  0  0  0  0  0  0  0  0  0
   21.2311   -1.6416  -11.1569 C   0  0  0  0  0  0  0  0  0  0  0  0
   22.6027   -1.4765  -11.6092 N   0  0  0  0  0  0  0  0  0  0  0  0
   25.4109   -0.4731   -9.4518 C   0  0  0  0  0  0  0  0  0  0  0  0
  1  2  3  0
  2  3  1  0
  3  4  2  0
  4  5  1  0
  5  6  1  0
  5  7  2  0
  7  8  1  0
  9  8  1  6
 10  9  1  6
 10 11  1  0
 11 12  1  6
 11 13  1  0
 13 14  1  1
  8 15  2  0
 15  3  1  0
 14  9  1  0
M  END
$$$$
