_rank17
     RDKit          3D

 15 16  0  0  0  0  0  0  0  0999 V2000
   28.9202    2.2890   -9.9954 N   0  0  0  0  0  0  0  0  0  0  0  0
   28.1569    1.4417   -9.7068 C   0  0  0  0  0  0  0  0  0  0  0  0
   27.2431    0.3910   -9.3607 C   0  0  0  0  0  0  0  0  0  0  0  0
   27.4863   -0.4119   -8.2681 C   0  0  0  0  0  0  0  0  0  0  0  0
   26.6016   -1.4368   -7.9248 C   0  0  0  0  0  0  0  0  0  0  0  0
   26.8818   -2.2006   -6.8424 F   0  0  0  0  0  0  0  0  0  0  0  0
   25.4792   -1.6252   -8.7060 C   0  0  0  0  0  0  0  0  0  0  0  0
   25.2081   -0.8440   -9.7994 C   0  0  0  0  0  0  0  0  0  0  0  0
   24.0353   -1.0271  -10.6309 C   0  0  1  0  0  0  0  0  0  0  0  0
   22.7271   -1.0285   -9.8567 C   0  0  0  0  0  0  0  0  0  0  0  0
   21.7384   -0.9905  -11.0084 C   0  0  1  0  0  0  0  0  0  0  0  0
   20.6060   -0.2977  -10.7123 F   0  0  0  0  0  0  0  0  0  0  0  0
   22.5298   -0.3729  -12.1468 C   0  0  0  0  0  0  0  0  0  0  0  0
   23.7959    0.0513  -11.5721 N   0  0  0  0  0  0  0  0  0  0  0  0
   26.1028    0.1589  -10.1099 C   0  0  0  0  0  0  0  0  0  0  0  0
  1  2  3  0
  2  3  1  0
  3  4  2  0
  4  5  1  0
  5  6  1  0
  5  7  2  0
  7  8  1  0
  9  8  1  1
 10  9  1  6
 10 11  1  0
 11 12  1  1
 11 13  1  0
 13 14  1  1
  8 15  2  0
 15  3  1  0
 14  9  1  0
M  END
$$$$
