_rank11
     RDKit          3D

 15 16  0  0  0  0  0  0  0  0999 V2000
   27.9282    0.6176   -7.2387 N   0  0  0  0  0  0  0  0  0  0  0  0
   27.3427    0.3615   -8.2264 C   0  0  0  0  0  0  0  0  0  0  0  0
   26.6117    0.0364   -9.4175 C   0  0  0  0  0  0  0  0  0  0  0  0
   27.2411    0.0364  -10.6429 C   0  0  0  0  0  0  0  0  0  0  0  0
   26.5364   -0.2789  -11.8068 C   0  0  0  0  0  0  0  0  0  0  0  0
   27.1967   -0.2661  -12.9889 F   0  0  0  0  0  0  0  0  0  0  0  0
   25.1957   -0.5899  -11.6995 C   0  0  0  0  0  0  0  0  0  0  0  0
   24.5399   -0.5990  -10.4957 C   0  0  0  0  0  0  0  0  0  0  0  0
   23.1334   -0.9228  -10.3639 C   0  0  1  0  0  0  0  0  0  0  0  0
   22.2335    0.2937  -10.2189 C   0  0  0  0  0  0  0  0  0  0  0  0
   20.8728   -0.3669  -10.3514 C   0  0  1  0  0  0  0  0  0  0  0  0
   19.9532    0.4305  -10.9583 F   0  0  0  0  0  0  0  0  0  0  0  0
   21.1599   -1.6381  -11.1295 C   0  0  0  0  0  0  0  0  0  0  0  0
   22.5536   -1.5551  -11.5343 N   0  0  0  0  0  0  0  0  0  0  0  0
   25.2660   -0.2828   -9.3663 C   0  0  0  0  0  0  0  0  0  0  0  0
  1  2  3  0
  2  3  1  0
  3  4  2  0
  4  5  1  0
  5  6  1  0
  5  7  2  0
  7  8  1  0
  9  8  1  6
 10  9  1  6
 10 11  1  0
 11 12  1  6
 11 13  1  0
 13 14  1  1
  8 15  2  0
 15  3  1  0
 14  9  1  0
M  END
$$$$
