_rank14
     RDKit          3D

 15 16  0  0  0  0  0  0  0  0999 V2000
   27.7821    1.3496   -6.8618 N   0  0  0  0  0  0  0  0  0  0  0  0
   27.2986    0.7467   -7.7487 C   0  0  0  0  0  0  0  0  0  0  0  0
   26.7108   -0.0096   -8.8170 C   0  0  0  0  0  0  0  0  0  0  0  0
   27.5029   -0.7635   -9.6547 C   0  0  0  0  0  0  0  0  0  0  0  0
   26.9382   -1.5024  -10.6968 C   0  0  0  0  0  0  0  0  0  0  0  0
   27.7562   -2.2288  -11.4949 F   0  0  0  0  0  0  0  0  0  0  0  0
   25.5690   -1.4589  -10.8666 C   0  0  0  0  0  0  0  0  0  0  0  0
   24.7528   -0.7189  -10.0507 C   0  0  0  0  0  0  0  0  0  0  0  0
   23.3139   -0.6611  -10.2139 C   0  0  1  0  0  0  0  0  0  0  0  0
   22.8696   -0.2158  -11.5977 C   0  0  0  0  0  0  0  0  0  0  0  0
   21.3807   -0.4973  -11.5005 C   0  0  1  0  0  0  0  0  0  0  0  0
   20.8357   -0.8837  -12.6852 F   0  0  0  0  0  0  0  0  0  0  0  0
   21.2819   -1.5656  -10.4267 C   0  0  0  0  0  0  0  0  0  0  0  0
   22.6490   -1.9470  -10.1127 N   0  0  0  0  0  0  0  0  0  0  0  0
   25.3435   -0.0012   -9.0316 C   0  0  0  0  0  0  0  0  0  0  0  0
  1  2  3  0
  2  3  1  0
  3  4  2  0
  4  5  1  0
  5  6  1  0
  5  7  2  0
  7  8  1  0
  9  8  1  6
 10  9  1  6
 10 11  1  0
 11 12  1  6
 11 13  1  0
 13 14  1  1
  8 15  2  0
 15  3  1  0
 14  9  1  0
M  END
$$$$
