_rank19
     RDKit          3D

 15 16  0  0  0  0  0  0  0  0999 V2000
   29.7054    0.8764   -7.8255 N   0  0  0  0  0  0  0  0  0  0  0  0
   28.6069    0.6350   -8.1702 C   0  0  0  0  0  0  0  0  0  0  0  0
   27.2752    0.3194   -8.6011 C   0  0  0  0  0  0  0  0  0  0  0  0
   26.3812   -0.2639   -7.7304 C   0  0  0  0  0  0  0  0  0  0  0  0
   25.0832   -0.5742   -8.1423 C   0  0  0  0  0  0  0  0  0  0  0  0
   24.2391   -1.1470   -7.2518 F   0  0  0  0  0  0  0  0  0  0  0  0
   24.7185   -0.2825   -9.4414 C   0  0  0  0  0  0  0  0  0  0  0  0
   25.5838    0.2976  -10.3325 C   0  0  0  0  0  0  0  0  0  0  0  0
   25.2188    0.6109  -11.6996 C   0  0  1  0  0  0  0  0  0  0  0  0
   25.5053   -0.5108  -12.6847 C   0  0  0  0  0  0  0  0  0  0  0  0
   24.8031    0.0333  -13.9161 C   0  0  1  0  0  0  0  0  0  0  0  0
   24.2661   -0.9437  -14.6953 F   0  0  0  0  0  0  0  0  0  0  0  0
   23.7601    0.9805  -13.3513 C   0  0  0  0  0  0  0  0  0  0  0  0
   23.7957    0.8032  -11.9090 N   0  0  0  0  0  0  0  0  0  0  0  0
   26.8579    0.5907   -9.8925 C   0  0  0  0  0  0  0  0  0  0  0  0
  1  2  3  0
  2  3  1  0
  3  4  2  0
  4  5  1  0
  5  6  1  0
  5  7  2  0
  7  8  1  0
  9  8  1  1
 10  9  1  6
 10 11  1  0
 11 12  1  1
 11 13  1  0
 13 14  1  1
  8 15  2  0
 15  3  1  0
 14  9  1  0
M  END
$$$$
