_rank1
     RDKit          3D

 15 16  0  0  0  0  0  0  0  0999 V2000
   18.8929    2.0629   -9.1907 N   0  0  0  0  0  0  0  0  0  0  0  0
   19.6496    1.2317   -9.5377 C   0  0  0  0  0  0  0  0  0  0  0  0
   20.5704    0.2261   -9.9845 C   0  0  0  0  0  0  0  0  0  0  0  0
   20.1263   -1.0447  -10.2768 C   0  0  0  0  0  0  0  0  0  0  0  0
   21.0165   -2.0290  -10.7122 C   0  0  0  0  0  0  0  0  0  0  0  0
   20.5344   -3.2641  -10.9877 F   0  0  0  0  0  0  0  0  0  0  0  0
   22.3503   -1.6978  -10.8424 C   0  0  0  0  0  0  0  0  0  0  0  0
   22.8244   -0.4429  -10.5598 C   0  0  0  0  0  0  0  0  0  0  0  0
   24.2206   -0.0772  -10.6905 C   0  0  1  0  0  0  0  0  0  0  0  0
   25.0911   -0.5532   -9.5387 C   0  0  0  0  0  0  0  0  0  0  0  0
   26.4663   -0.2330  -10.0970 C   0  0  1  0  0  0  0  0  0  0  0  0
   27.4195   -1.1178   -9.6987 F   0  0  0  0  0  0  0  0  0  0  0  0
   26.2560   -0.2260  -11.6002 C   0  0  0  0  0  0  0  0  0  0  0  0
   24.8965   -0.6924  -11.8177 N   0  0  0  0  0  0  0  0  0  0  0  0
   21.9181    0.5049  -10.1322 C   0  0  0  0  0  0  0  0  0  0  0  0
  1  2  3  0
  2  3  1  0
  3  4  2  0
  4  5  1  0
  5  6  1  0
  5  7  2  0
  7  8  1  0
  9  8  1  1
 10  9  1  6
 10 11  1  0
 11 12  1  6
 11 13  1  0
 13 14  1  1
  8 15  2  0
 15  3  1  0
 14  9  1  0
M  END
$$$$
