_rank2
     RDKit          3D

 17 18  0  0  0  0  0  0  0  0999 V2000
   18.6333    2.7023   -9.8174 N   0  0  0  0  0  0  0  0  0  0  0  0
   19.1954    1.7512   -9.9078 C   0  0  0  0  0  0  0  0  0  0  0  0
   19.9607    0.4877  -10.0487 C   0  0  0  0  0  0  0  0  0  0  0  0
   19.2385   -0.6433  -10.5341 C   0  0  0  0  0  0  0  0  0  0  0  0
   19.9695   -1.7968  -10.6788 C   0  0  0  0  0  0  0  0  0  0  0  0
   21.2683   -1.9696  -10.4113 C   0  0  0  0  0  0  0  0  0  0  0  0
   21.8770   -3.2410  -10.5987 N   0  0  0  0  0  0  0  0  0  0  0  0
   22.0154   -0.8785   -9.9256 C   0  0  0  0  0  0  0  0  0  0  0  0
   23.2405   -0.9001   -9.6077 O   0  0  0  0  0  0  0  0  0  0  0  0
   24.5180   -0.8699   -9.3269 C   0  0  0  0  0  0  0  0  0  0  0  0
   25.5719   -0.4356  -10.2875 C   0  0  1  0  0  0  0  0  0  0  0  0
   26.9768   -0.7021   -9.7489 C   0  0  0  0  0  0  0  0  0  0  0  0
   27.4540   -1.9929  -10.1956 N   0  0  0  0  0  0  0  0  0  0  0  0
   25.4976   -0.7689  -11.7235 C   0  0  0  0  0  0  0  0  0  0  0  0
   26.0255    0.6736  -11.9838 C   0  0  0  0  0  0  0  0  0  0  0  0
   25.3927    1.0395  -10.6604 C   0  0  0  0  0  0  0  0  0  0  0  0
   21.2474    0.3314   -9.7795 C   0  0  0  0  0  0  0  0  0  0  0  0
  1  2  3  0
  2  3  1  0
  3  4  2  0
  4  5  1  0
  5  6  2  0
  6  7  1  0
  6  8  1  0
  8  9  1  0
 10  9  1  1
 11 10  1  1
 11 12  1  0
 12 13  1  1
 14 11  1  1
 15 14  1  6
 16 15  1  6
  8 17  2  0
 17  3  1  0
 16 11  1  0
M  END
$$$$
