_rank3
     RDKit          3D

 17 18  0  0  0  0  0  0  0  0999 V2000
   18.1844    2.4675   -9.6920 N   0  0  0  0  0  0  0  0  0  0  0  0
   18.8439    1.5914   -9.8543 C   0  0  0  0  0  0  0  0  0  0  0  0
   19.7123    0.4118  -10.0916 C   0  0  0  0  0  0  0  0  0  0  0  0
   19.0818   -0.7413  -10.6477 C   0  0  0  0  0  0  0  0  0  0  0  0
   19.9065   -1.8144  -10.8806 C   0  0  0  0  0  0  0  0  0  0  0  0
   21.2195   -1.8921  -10.6393 C   0  0  0  0  0  0  0  0  0  0  0  0
   21.9319   -3.0900  -10.9219 N   0  0  0  0  0  0  0  0  0  0  0  0
   21.8782   -0.7765  -10.0860 C   0  0  0  0  0  0  0  0  0  0  0  0
   23.1057   -0.7138   -9.7830 O   0  0  0  0  0  0  0  0  0  0  0  0
   24.3575   -0.6004   -9.4196 C   0  0  0  0  0  0  0  0  0  0  0  0
   25.4969   -0.5043  -10.3758 C   0  0  1  0  0  0  0  0  0  0  0  0
   25.9536   -1.8811  -10.8563 C   0  0  0  0  0  0  0  0  0  0  0  0
   27.3005   -2.1542  -10.4037 N   0  0  0  0  0  0  0  0  0  0  0  0
   25.4912    0.4576  -11.4955 C   0  0  0  0  0  0  0  0  0  0  0  0
   26.9983    0.6879  -11.1748 C   0  0  0  0  0  0  0  0  0  0  0  0
   26.6593    0.2803   -9.7589 C   0  0  0  0  0  0  0  0  0  0  0  0
   21.0118    0.3493   -9.8474 C   0  0  0  0  0  0  0  0  0  0  0  0
  1  2  3  0
  2  3  1  0
  3  4  2  0
  4  5  1  0
  5  6  2  0
  6  7  1  0
  6  8  1  0
  8  9  1  0
 10  9  1  1
 11 10  1  1
 11 12  1  0
 12 13  1  1
 14 11  1  1
 15 14  1  6
 16 15  1  6
  8 17  2  0
 17  3  1  0
 16 11  1  0
M  END
$$$$
