_rank12
     RDKit          3D

 17 18  0  0  0  0  0  0  0  0999 V2000
   28.4539    1.9154   -8.2700 N   0  0  0  0  0  0  0  0  0  0  0  0
   27.7786    1.0651   -8.4934 C   0  0  0  0  0  0  0  0  0  0  0  0
   26.8619   -0.0683   -8.7707 C   0  0  0  0  0  0  0  0  0  0  0  0
   27.4690   -1.3444   -8.9683 C   0  0  0  0  0  0  0  0  0  0  0  0
   26.6026   -2.3842   -9.2013 C   0  0  0  0  0  0  0  0  0  0  0  0
   25.2682   -2.3253   -9.2662 C   0  0  0  0  0  0  0  0  0  0  0  0
   24.5100   -3.4978   -9.5356 N   0  0  0  0  0  0  0  0  0  0  0  0
   24.6308   -1.0827   -9.0814 C   0  0  0  0  0  0  0  0  0  0  0  0
   23.3839   -0.8718   -9.1394 O   0  0  0  0  0  0  0  0  0  0  0  0
   22.1083   -0.6014   -9.2468 C   0  0  0  0  0  0  0  0  0  0  0  0
   21.3561   -0.6315  -10.5334 C   0  0  1  0  0  0  0  0  0  0  0  0
   22.0465    0.1979  -11.6153 C   0  0  0  0  0  0  0  0  0  0  0  0
   21.3384    0.0813  -12.8717 N   0  0  0  0  0  0  0  0  0  0  0  0
   20.8392   -1.8924  -11.1006 C   0  0  0  0  0  0  0  0  0  0  0  0
   19.5679   -1.0802  -11.4899 C   0  0  0  0  0  0  0  0  0  0  0  0
   19.9079   -0.1761  -10.3268 C   0  0  0  0  0  0  0  0  0  0  0  0
   25.5415    0.0052   -8.8323 C   0  0  0  0  0  0  0  0  0  0  0  0
  1  2  3  0
  2  3  1  0
  3  4  2  0
  4  5  1  0
  5  6  2  0
  6  7  1  0
  6  8  1  0
  8  9  1  0
 10  9  1  1
 11 10  1  1
 11 12  1  0
 12 13  1  1
 14 11  1  1
 15 14  1  6
 16 15  1  6
  8 17  2  0
 17  3  1  0
 16 11  1  0
M  END
$$$$
