_rank9
     RDKit          3D

 17 18  0  0  0  0  0  0  0  0999 V2000
   28.4104    1.3253  -13.2604 N   0  0  0  0  0  0  0  0  0  0  0  0
   27.7421    0.9213  -12.4736 C   0  0  0  0  0  0  0  0  0  0  0  0
   26.8436    0.4044  -11.4119 C   0  0  0  0  0  0  0  0  0  0  0  0
   27.3319    0.4778  -10.0731 C   0  0  0  0  0  0  0  0  0  0  0  0
   26.4768    0.0153   -9.1032 C   0  0  0  0  0  0  0  0  0  0  0  0
   25.2532   -0.4942   -9.2806 C   0  0  0  0  0  0  0  0  0  0  0  0
   24.4962   -0.9490   -8.1659 N   0  0  0  0  0  0  0  0  0  0  0  0
   24.7367   -0.5883  -10.5879 C   0  0  0  0  0  0  0  0  0  0  0  0
   23.6103   -1.0688  -10.9085 O   0  0  0  0  0  0  0  0  0  0  0  0
   22.4723   -1.5776  -11.3058 C   0  0  0  0  0  0  0  0  0  0  0  0
   21.1387   -1.0161  -10.9478 C   0  0  1  0  0  0  0  0  0  0  0  0
   21.1825   -0.2420   -9.6311 C   0  0  0  0  0  0  0  0  0  0  0  0
   21.3821    1.1693   -9.8798 N   0  0  0  0  0  0  0  0  0  0  0  0
   20.3052   -0.3052  -11.9372 C   0  0  0  0  0  0  0  0  0  0  0  0
   19.0916   -1.0437  -11.2976 C   0  0  0  0  0  0  0  0  0  0  0  0
   20.0777   -2.1206  -10.9054 C   0  0  0  0  0  0  0  0  0  0  0  0
   25.6337   -0.0979  -11.6027 C   0  0  0  0  0  0  0  0  0  0  0  0
  1  2  3  0
  2  3  1  0
  3  4  2  0
  4  5  1  0
  5  6  2  0
  6  7  1  0
  6  8  1  0
  8  9  1  0
 10  9  1  1
 11 10  1  6
 11 12  1  0
 12 13  1  1
 14 11  1  1
 15 14  1  6
 16 15  1  6
  8 17  2  0
 17  3  1  0
 16 11  1  0
M  END
$$$$
