_rank8
     RDKit          3D

 17 18  0  0  0  0  0  0  0  0999 V2000
   27.3823    1.2255   -6.5153 N   0  0  0  0  0  0  0  0  0  0  0  0
   27.1100    0.6609   -7.4296 C   0  0  0  0  0  0  0  0  0  0  0  0
   26.7673   -0.0873   -8.6644 C   0  0  0  0  0  0  0  0  0  0  0  0
   27.8623   -0.5278   -9.4664 C   0  0  0  0  0  0  0  0  0  0  0  0
   27.5252   -1.2375  -10.5928 C   0  0  0  0  0  0  0  0  0  0  0  0
   26.2948   -1.5503  -11.0129 C   0  0  0  0  0  0  0  0  0  0  0  0
   26.1121   -2.2809  -12.2193 N   0  0  0  0  0  0  0  0  0  0  0  0
   25.1868   -1.1296  -10.2515 C   0  0  0  0  0  0  0  0  0  0  0  0
   23.9700   -1.3302  -10.5374 O   0  0  0  0  0  0  0  0  0  0  0  0
   22.6945   -1.5010  -10.7735 C   0  0  0  0  0  0  0  0  0  0  0  0
   21.6133   -0.7096  -10.1203 C   0  0  1  0  0  0  0  0  0  0  0  0
   20.6249   -1.6048   -9.3743 C   0  0  0  0  0  0  0  0  0  0  0  0
   20.3015   -2.7719  -10.1661 N   0  0  0  0  0  0  0  0  0  0  0  0
   21.9075    0.5034   -9.3324 C   0  0  0  0  0  0  0  0  0  0  0  0
   20.6355    1.1181   -9.9892 C   0  0  0  0  0  0  0  0  0  0  0  0
   20.8946    0.1762  -11.1432 C   0  0  0  0  0  0  0  0  0  0  0  0
   25.5434   -0.3897   -9.0681 C   0  0  0  0  0  0  0  0  0  0  0  0
  1  2  3  0
  2  3  1  0
  3  4  2  0
  4  5  1  0
  5  6  2  0
  6  7  1  0
  6  8  1  0
  8  9  1  0
 10  9  1  1
 11 10  1  6
 11 12  1  0
 12 13  1  1
 14 11  1  1
 15 14  1  6
 16 15  1  6
  8 17  2  0
 17  3  1  0
 16 11  1  0
M  END
$$$$
