_rank11
     RDKit          3D

 17 18  0  0  0  0  0  0  0  0999 V2000
   28.7005   -0.2440   -7.5360 N   0  0  0  0  0  0  0  0  0  0  0  0
   27.9541   -0.1750   -8.3527 C   0  0  0  0  0  0  0  0  0  0  0  0
   26.9632   -0.1051   -9.4550 C   0  0  0  0  0  0  0  0  0  0  0  0
   27.3972    0.5193  -10.6625 C   0  0  0  0  0  0  0  0  0  0  0  0
   26.4733    0.5540  -11.6780 C   0  0  0  0  0  0  0  0  0  0  0  0
   25.2251    0.0748  -11.6519 C   0  0  0  0  0  0  0  0  0  0  0  0
   24.3814    0.2065  -12.7890 N   0  0  0  0  0  0  0  0  0  0  0  0
   24.7571   -0.5446  -10.4763 C   0  0  0  0  0  0  0  0  0  0  0  0
   23.5973   -1.0199  -10.2986 O   0  0  0  0  0  0  0  0  0  0  0  0
   22.4195   -1.5320  -10.0493 C   0  0  0  0  0  0  0  0  0  0  0  0
   21.1545   -1.0569  -10.6786 C   0  0  1  0  0  0  0  0  0  0  0  0
   19.9372   -1.3570   -9.8050 C   0  0  0  0  0  0  0  0  0  0  0  0
   19.8662   -2.7704   -9.5037 N   0  0  0  0  0  0  0  0  0  0  0  0
   21.0425    0.2883  -11.2757 C   0  0  0  0  0  0  0  0  0  0  0  0
   20.2183   -0.3920  -12.4093 C   0  0  0  0  0  0  0  0  0  0  0  0
   20.9890   -1.6507  -12.0812 C   0  0  0  0  0  0  0  0  0  0  0  0
   25.7297   -0.5841   -9.4146 C   0  0  0  0  0  0  0  0  0  0  0  0
  1  2  3  0
  2  3  1  0
  3  4  2  0
  4  5  1  0
  5  6  2  0
  6  7  1  0
  6  8  1  0
  8  9  1  0
 10  9  1  1
 11 10  1  1
 11 12  1  0
 12 13  1  1
 14 11  1  1
 15 14  1  6
 16 15  1  6
  8 17  2  0
 17  3  1  0
 16 11  1  0
M  END
$$$$
