_rank13
     RDKit          3D

 17 18  0  0  0  0  0  0  0  0999 V2000
   28.5434    2.4149   -9.1446 N   0  0  0  0  0  0  0  0  0  0  0  0
   27.8933    1.5170   -9.1551 C   0  0  0  0  0  0  0  0  0  0  0  0
   27.0027    0.3302   -9.1657 C   0  0  0  0  0  0  0  0  0  0  0  0
   27.3376   -0.7252   -8.2656 C   0  0  0  0  0  0  0  0  0  0  0  0
   26.4886   -1.8046   -8.2745 C   0  0  0  0  0  0  0  0  0  0  0  0
   25.3988   -1.9696   -9.0317 C   0  0  0  0  0  0  0  0  0  0  0  0
   24.6305   -3.1622   -8.9341 N   0  0  0  0  0  0  0  0  0  0  0  0
   25.0370   -0.9524   -9.9367 C   0  0  0  0  0  0  0  0  0  0  0  0
   24.0511   -0.9806  -10.7302 O   0  0  0  0  0  0  0  0  0  0  0  0
   23.0350   -1.0818  -11.5482 C   0  0  0  0  0  0  0  0  0  0  0  0
   21.6155   -0.8762  -11.1425 C   0  0  1  0  0  0  0  0  0  0  0  0
   21.5052   -0.2963   -9.7331 C   0  0  0  0  0  0  0  0  0  0  0  0
   21.7883    1.1226   -9.7457 N   0  0  0  0  0  0  0  0  0  0  0  0
   20.6363   -0.2357  -12.0424 C   0  0  0  0  0  0  0  0  0  0  0  0
   19.6193   -1.2991  -11.5304 C   0  0  0  0  0  0  0  0  0  0  0  0
   20.8202   -2.1796  -11.2685 C   0  0  0  0  0  0  0  0  0  0  0  0
   25.9263    0.1807   -9.9218 C   0  0  0  0  0  0  0  0  0  0  0  0
  1  2  3  0
  2  3  1  0
  3  4  2  0
  4  5  1  0
  5  6  2  0
  6  7  1  0
  6  8  1  0
  8  9  1  0
 10  9  1  1
 11 10  1  6
 11 12  1  0
 12 13  1  1
 14 11  1  1
 15 14  1  6
 16 15  1  6
  8 17  2  0
 17  3  1  0
 16 11  1  0
M  END
$$$$
