_rank15
     RDKit          3D

 17 18  0  0  0  0  0  0  0  0999 V2000
   28.8345    1.7177   -9.6127 N   0  0  0  0  0  0  0  0  0  0  0  0
   27.8951    1.1567   -9.4349 C   0  0  0  0  0  0  0  0  0  0  0  0
   26.6255    0.4279   -9.1922 C   0  0  0  0  0  0  0  0  0  0  0  0
   26.5279   -0.2887   -7.9621 C   0  0  0  0  0  0  0  0  0  0  0  0
   25.3371   -0.9378   -7.7462 C   0  0  0  0  0  0  0  0  0  0  0  0
   24.2762   -0.9720   -8.5595 C   0  0  0  0  0  0  0  0  0  0  0  0
   23.1163   -1.7101   -8.1960 N   0  0  0  0  0  0  0  0  0  0  0  0
   24.3346   -0.2812   -9.7859 C   0  0  0  0  0  0  0  0  0  0  0  0
   23.4217   -0.2451  -10.6621 O   0  0  0  0  0  0  0  0  0  0  0  0
   22.5294   -0.2097  -11.6183 C   0  0  0  0  0  0  0  0  0  0  0  0
   21.1521   -0.7660  -11.4932 C   0  0  1  0  0  0  0  0  0  0  0  0
   20.5230   -0.4285  -10.1422 C   0  0  0  0  0  0  0  0  0  0  0  0
   20.6037    0.9934   -9.8870 N   0  0  0  0  0  0  0  0  0  0  0  0
   20.1577   -0.6262  -12.5751 C   0  0  0  0  0  0  0  0  0  0  0  0
   19.7386   -2.0897  -12.2439 C   0  0  0  0  0  0  0  0  0  0  0  0
   21.1522   -2.2778  -11.7415 C   0  0  0  0  0  0  0  0  0  0  0  0
   25.5828    0.4029  -10.0075 C   0  0  0  0  0  0  0  0  0  0  0  0
  1  2  3  0
  2  3  1  0
  3  4  2  0
  4  5  1  0
  5  6  2  0
  6  7  1  0
  6  8  1  0
  8  9  1  0
 10  9  1  1
 11 10  1  6
 11 12  1  0
 12 13  1  1
 14 11  1  1
 15 14  1  6
 16 15  1  6
  8 17  2  0
 17  3  1  0
 16 11  1  0
M  END
$$$$
