_rank18
     RDKit          3D

 17 18  0  0  0  0  0  0  0  0999 V2000
   20.0489   -2.3185   -6.9140 N   0  0  0  0  0  0  0  0  0  0  0  0
   20.4942   -2.1324   -7.9119 C   0  0  0  0  0  0  0  0  0  0  0  0
   21.1089   -1.9001   -9.2423 C   0  0  0  0  0  0  0  0  0  0  0  0
   20.4620   -2.5111  -10.3579 C   0  0  0  0  0  0  0  0  0  0  0  0
   21.0330   -2.2658  -11.5825 C   0  0  0  0  0  0  0  0  0  0  0  0
   22.1197   -1.5283  -11.8345 C   0  0  0  0  0  0  0  0  0  0  0  0
   22.5978   -1.3858  -13.1662 N   0  0  0  0  0  0  0  0  0  0  0  0
   22.7899   -0.9122  -10.7594 C   0  0  0  0  0  0  0  0  0  0  0  0
   23.8394   -0.2094  -10.8434 O   0  0  0  0  0  0  0  0  0  0  0  0
   24.8852    0.5675  -10.9636 C   0  0  0  0  0  0  0  0  0  0  0  0
   26.2931    0.0944  -10.8379 C   0  0  1  0  0  0  0  0  0  0  0  0
   26.8125   -0.4995  -12.1465 C   0  0  0  0  0  0  0  0  0  0  0  0
   28.2294   -0.7763  -12.0498 N   0  0  0  0  0  0  0  0  0  0  0  0
   27.3349    0.9203  -10.1964 C   0  0  0  0  0  0  0  0  0  0  0  0
   27.8505   -0.4036   -9.5570 C   0  0  0  0  0  0  0  0  0  0  0  0
   26.4297   -0.9046   -9.6842 C   0  0  0  0  0  0  0  0  0  0  0  0
   22.1860   -1.1671   -9.4767 C   0  0  0  0  0  0  0  0  0  0  0  0
  1  2  3  0
  2  3  1  0
  3  4  2  0
  4  5  1  0
  5  6  2  0
  6  7  1  0
  6  8  1  0
  8  9  1  0
 10  9  1  1
 11 10  1  6
 11 12  1  0
 12 13  1  1
 14 11  1  1
 15 14  1  6
 16 15  1  6
  8 17  2  0
 17  3  1  0
 16 11  1  0
M  END
$$$$
