_rank5
     RDKit          3D

 17 18  0  0  0  0  0  0  0  0999 V2000
   19.9369   -4.3172  -11.1185 N   0  0  0  0  0  0  0  0  0  0  0  0
   20.3277   -3.3045  -10.8932 C   0  0  0  0  0  0  0  0  0  0  0  0
   20.8580   -1.9466  -10.6161 C   0  0  0  0  0  0  0  0  0  0  0  0
   19.9447   -1.0108  -10.0447 C   0  0  0  0  0  0  0  0  0  0  0  0
   20.4606    0.2330   -9.7750 C   0  0  0  0  0  0  0  0  0  0  0  0
   21.7108    0.6543   -9.9936 C   0  0  0  0  0  0  0  0  0  0  0  0
   22.0854    1.9882   -9.6733 N   0  0  0  0  0  0  0  0  0  0  0  0
   22.6416   -0.2381  -10.5609 C   0  0  0  0  0  0  0  0  0  0  0  0
   23.8462    0.0271  -10.8456 O   0  0  0  0  0  0  0  0  0  0  0  0
   25.0959    0.3374  -11.0778 C   0  0  0  0  0  0  0  0  0  0  0  0
   26.2288   -0.0485  -10.1892 C   0  0  1  0  0  0  0  0  0  0  0  0
   27.1578    1.1315   -9.9074 C   0  0  0  0  0  0  0  0  0  0  0  0
   27.1049    1.4946   -8.5078 N   0  0  0  0  0  0  0  0  0  0  0  0
   26.0176   -0.8435   -8.9636 C   0  0  0  0  0  0  0  0  0  0  0  0
   27.3258   -1.5979   -9.3468 C   0  0  0  0  0  0  0  0  0  0  0  0
   27.0018   -1.2332  -10.7778 C   0  0  0  0  0  0  0  0  0  0  0  0
   22.0992   -1.5434  -10.8382 C   0  0  0  0  0  0  0  0  0  0  0  0
  1  2  3  0
  2  3  1  0
  3  4  2  0
  4  5  1  0
  5  6  2  0
  6  7  1  0
  6  8  1  0
  8  9  1  0
 10  9  1  1
 11 10  1  6
 11 12  1  0
 12 13  1  1
 14 11  1  1
 15 14  1  6
 16 15  1  6
  8 17  2  0
 17  3  1  0
 16 11  1  0
M  END
$$$$
