_rank1
     RDKit          3D

 17 18  0  0  0  0  0  0  0  0999 V2000
   18.8515    2.5599   -9.0480 N   0  0  0  0  0  0  0  0  0  0  0  0
   19.3681    1.6607   -9.4397 C   0  0  0  0  0  0  0  0  0  0  0  0
   20.0776    0.4597   -9.9458 C   0  0  0  0  0  0  0  0  0  0  0  0
   19.3377   -0.7605   -9.9539 C   0  0  0  0  0  0  0  0  0  0  0  0
   20.0043   -1.8554  -10.4468 C   0  0  0  0  0  0  0  0  0  0  0  0
   21.2585   -1.8978  -10.9088 C   0  0  0  0  0  0  0  0  0  0  0  0
   21.8125   -3.1233  -11.3709 N   0  0  0  0  0  0  0  0  0  0  0  0
   22.0238   -0.7150  -10.9130 C   0  0  0  0  0  0  0  0  0  0  0  0
   23.2259   -0.6098  -11.2956 O   0  0  0  0  0  0  0  0  0  0  0  0
   24.4814   -0.5651  -11.6608 C   0  0  0  0  0  0  0  0  0  0  0  0
   25.5969   -0.1572  -10.7600 C   0  0  1  0  0  0  0  0  0  0  0  0
   26.4840    0.9094  -11.4005 C   0  0  0  0  0  0  0  0  0  0  0  0
   25.8925    2.2206  -11.2443 N   0  0  0  0  0  0  0  0  0  0  0  0
   25.3703    0.1480   -9.3337 C   0  0  0  0  0  0  0  0  0  0  0  0
   26.7098   -0.6000   -9.0632 C   0  0  0  0  0  0  0  0  0  0  0  0
   26.4198   -1.3753  -10.3284 C   0  0  0  0  0  0  0  0  0  0  0  0
   21.3206    0.4328  -10.4003 C   0  0  0  0  0  0  0  0  0  0  0  0
  1  2  3  0
  2  3  1  0
  3  4  2  0
  4  5  1  0
  5  6  2  0
  6  7  1  0
  6  8  1  0
  8  9  1  0
 10  9  1  1
 11 10  1  6
 11 12  1  0
 12 13  1  1
 14 11  1  1
 15 14  1  6
 16 15  1  6
  8 17  2  0
 17  3  1  0
 16 11  1  0
M  END
$$$$
