_rank14
     RDKit          3D

 17 18  0  0  0  0  0  0  0  0999 V2000
   28.8116   -0.8430   -8.3122 N   0  0  0  0  0  0  0  0  0  0  0  0
   27.7922   -0.5095   -8.5923 C   0  0  0  0  0  0  0  0  0  0  0  0
   26.4372   -0.0399   -8.9734 C   0  0  0  0  0  0  0  0  0  0  0  0
   26.1949    1.3620   -8.8633 C   0  0  0  0  0  0  0  0  0  0  0  0
   24.9425    1.7794   -9.2419 C   0  0  0  0  0  0  0  0  0  0  0  0
   23.9388    1.0189   -9.6920 C   0  0  0  0  0  0  0  0  0  0  0  0
   22.6878    1.6060  -10.0274 N   0  0  0  0  0  0  0  0  0  0  0  0
   24.1365   -0.3708   -9.8105 C   0  0  0  0  0  0  0  0  0  0  0  0
   23.2741   -1.2133  -10.1964 O   0  0  0  0  0  0  0  0  0  0  0  0
   22.4322   -2.1112  -10.6402 C   0  0  0  0  0  0  0  0  0  0  0  0
   21.0695   -1.7932  -11.1538 C   0  0  1  0  0  0  0  0  0  0  0  0
   21.1159   -1.2076  -12.5645 C   0  0  0  0  0  0  0  0  0  0  0  0
   21.5850   -2.1984  -13.5088 N   0  0  0  0  0  0  0  0  0  0  0  0
   19.9505   -2.7475  -11.0275 C   0  0  0  0  0  0  0  0  0  0  0  0
   19.0633   -1.5102  -10.6970 C   0  0  0  0  0  0  0  0  0  0  0  0
   20.3302   -0.8587  -10.1908 C   0  0  0  0  0  0  0  0  0  0  0  0
   25.4525   -0.8052   -9.4175 C   0  0  0  0  0  0  0  0  0  0  0  0
  1  2  3  0
  2  3  1  0
  3  4  2  0
  4  5  1  0
  5  6  2  0
  6  7  1  0
  6  8  1  0
  8  9  1  0
 10  9  1  1
 11 10  1  1
 11 12  1  0
 12 13  1  1
 14 11  1  1
 15 14  1  6
 16 15  1  6
  8 17  2  0
 17  3  1  0
 16 11  1  0
M  END
$$$$
