_rank7
     RDKit          3D

 17 18  0  0  0  0  0  0  0  0999 V2000
   27.2504   -1.3727   -7.4339 N   0  0  0  0  0  0  0  0  0  0  0  0
   26.9121   -1.0071   -8.4243 C   0  0  0  0  0  0  0  0  0  0  0  0
   26.4544   -0.5419   -9.7569 C   0  0  0  0  0  0  0  0  0  0  0  0
   27.4533    0.0008  -10.6194 C   0  0  0  0  0  0  0  0  0  0  0  0
   27.0138    0.4048  -11.8562 C   0  0  0  0  0  0  0  0  0  0  0  0
   25.7639    0.3480  -12.3281 C   0  0  0  0  0  0  0  0  0  0  0  0
   25.4667    0.8273  -13.6335 N   0  0  0  0  0  0  0  0  0  0  0  0
   24.7477   -0.1768  -11.5054 C   0  0  0  0  0  0  0  0  0  0  0  0
   23.5219   -0.2695  -11.8072 O   0  0  0  0  0  0  0  0  0  0  0  0
   22.2405   -0.3177  -12.0671 C   0  0  0  0  0  0  0  0  0  0  0  0
   21.2364   -0.9799  -11.1866 C   0  0  1  0  0  0  0  0  0  0  0  0
   19.8796   -1.1187  -11.8756 C   0  0  0  0  0  0  0  0  0  0  0  0
   19.2843   -2.4011  -11.5679 N   0  0  0  0  0  0  0  0  0  0  0  0
   21.5577   -2.2044  -10.4276 C   0  0  0  0  0  0  0  0  0  0  0  0
   20.7402   -1.5758   -9.2598 C   0  0  0  0  0  0  0  0  0  0  0  0
   21.1067   -0.2348   -9.8542 C   0  0  0  0  0  0  0  0  0  0  0  0
   25.2124   -0.6043  -10.2107 C   0  0  0  0  0  0  0  0  0  0  0  0
  1  2  3  0
  2  3  1  0
  3  4  2  0
  4  5  1  0
  5  6  2  0
  6  7  1  0
  6  8  1  0
  8  9  1  0
 10  9  1  1
 11 10  1  6
 11 12  1  0
 12 13  1  1
 14 11  1  1
 15 14  1  6
 16 15  1  6
  8 17  2  0
 17  3  1  0
 16 11  1  0
M  END
$$$$
