_rank17
     RDKit          3D

 17 18  0  0  0  0  0  0  0  0999 V2000
   21.9319   -2.5430  -14.9856 N   0  0  0  0  0  0  0  0  0  0  0  0
   21.9376   -2.2157  -13.9264 C   0  0  0  0  0  0  0  0  0  0  0  0
   21.9611   -1.7586  -12.5149 C   0  0  0  0  0  0  0  0  0  0  0  0
   20.7081   -1.3781  -11.9479 C   0  0  0  0  0  0  0  0  0  0  0  0
   20.7476   -0.9796  -10.6343 C   0  0  0  0  0  0  0  0  0  0  0  0
   21.8237   -0.9073   -9.8436 C   0  0  0  0  0  0  0  0  0  0  0  0
   21.6993   -0.4542   -8.5014 N   0  0  0  0  0  0  0  0  0  0  0  0
   23.0802   -1.2697  -10.3674 C   0  0  0  0  0  0  0  0  0  0  0  0
   24.1831   -1.2283   -9.7474 O   0  0  0  0  0  0  0  0  0  0  0  0
   25.3194   -1.1136   -9.1091 C   0  0  0  0  0  0  0  0  0  0  0  0
   26.4642   -0.2880   -9.5883 C   0  0  1  0  0  0  0  0  0  0  0  0
   26.7346    0.8994   -8.6653 C   0  0  0  0  0  0  0  0  0  0  0  0
   28.1148    0.8990   -8.2308 N   0  0  0  0  0  0  0  0  0  0  0  0
   27.7336   -0.9012  -10.0261 C   0  0  0  0  0  0  0  0  0  0  0  0
   27.7409    0.1639  -11.1630 C   0  0  0  0  0  0  0  0  0  0  0  0
   26.2348    0.1737  -11.0311 C   0  0  0  0  0  0  0  0  0  0  0  0
   23.0351   -1.6920  -11.7438 C   0  0  0  0  0  0  0  0  0  0  0  0
  1  2  3  0
  2  3  1  0
  3  4  2  0
  4  5  1  0
  5  6  2  0
  6  7  1  0
  6  8  1  0
  8  9  1  0
 10  9  1  1
 11 10  1  1
 11 12  1  0
 12 13  1  1
 14 11  1  1
 15 14  1  6
 16 15  1  6
  8 17  2  0
 17  3  1  0
 16 11  1  0
M  END
$$$$
