_rank10
     RDKit          3D

 17 18  0  0  0  0  0  0  0  0999 V2000
   27.2154    0.2024   -6.8285 N   0  0  0  0  0  0  0  0  0  0  0  0
   26.9156    0.1424   -7.8940 C   0  0  0  0  0  0  0  0  0  0  0  0
   26.4952    0.0787   -9.3157 C   0  0  0  0  0  0  0  0  0  0  0  0
   27.5263    0.2227  -10.2916 C   0  0  0  0  0  0  0  0  0  0  0  0
   27.1203    0.1384  -11.6008 C   0  0  0  0  0  0  0  0  0  0  0  0
   25.8760   -0.0569  -12.0502 C   0  0  0  0  0  0  0  0  0  0  0  0
   25.6162   -0.1019  -13.4476 N   0  0  0  0  0  0  0  0  0  0  0  0
   24.8290   -0.1990  -11.1185 C   0  0  0  0  0  0  0  0  0  0  0  0
   23.6050   -0.3634  -11.3963 O   0  0  0  0  0  0  0  0  0  0  0  0
   22.3602   -0.5713  -11.7413 C   0  0  0  0  0  0  0  0  0  0  0  0
   21.2499   -0.7789  -10.7686 C   0  0  1  0  0  0  0  0  0  0  0  0
   20.1286   -1.6326  -11.3592 C   0  0  0  0  0  0  0  0  0  0  0  0
   20.4584   -2.0387  -12.7082 N   0  0  0  0  0  0  0  0  0  0  0  0
   21.5080   -1.1634   -9.3670 C   0  0  0  0  0  0  0  0  0  0  0  0
   20.3636   -0.1759   -8.9896 C   0  0  0  0  0  0  0  0  0  0  0  0
   20.7143    0.5637  -10.2607 C   0  0  0  0  0  0  0  0  0  0  0  0
   25.2584   -0.1151   -9.7461 C   0  0  0  0  0  0  0  0  0  0  0  0
  1  2  3  0
  2  3  1  0
  3  4  2  0
  4  5  1  0
  5  6  2  0
  6  7  1  0
  6  8  1  0
  8  9  1  0
 10  9  1  1
 11 10  1  6
 11 12  1  0
 12 13  1  1
 14 11  1  1
 15 14  1  6
 16 15  1  6
  8 17  2  0
 17  3  1  0
 16 11  1  0
M  END
$$$$
