_rank20
     RDKit          3D

 17 18  0  0  0  0  0  0  0  0999 V2000
   29.4029   -1.3951   -8.0360 N   0  0  0  0  0  0  0  0  0  0  0  0
   28.4123   -1.0045   -8.3441 C   0  0  0  0  0  0  0  0  0  0  0  0
   27.0960   -0.4578   -8.7570 C   0  0  0  0  0  0  0  0  0  0  0  0
   26.7337    0.8100   -8.2116 C   0  0  0  0  0  0  0  0  0  0  0  0
   25.5223    1.3090   -8.6233 C   0  0  0  0  0  0  0  0  0  0  0  0
   24.6567    0.7363   -9.4665 C   0  0  0  0  0  0  0  0  0  0  0  0
   23.4274    1.3789   -9.7797 N   0  0  0  0  0  0  0  0  0  0  0  0
   24.9754   -0.5180  -10.0230 C   0  0  0  0  0  0  0  0  0  0  0  0
   24.2460   -1.1873  -10.8120 O   0  0  0  0  0  0  0  0  0  0  0  0
   23.4354   -1.8416  -11.6036 C   0  0  0  0  0  0  0  0  0  0  0  0
   21.9499   -1.7294  -11.5517 C   0  0  1  0  0  0  0  0  0  0  0  0
   21.3970   -0.9452  -12.7409 C   0  0  0  0  0  0  0  0  0  0  0  0
   22.4737   -0.3301  -13.4865 N   0  0  0  0  0  0  0  0  0  0  0  0
   21.0935   -2.8956  -11.2592 C   0  0  0  0  0  0  0  0  0  0  0  0
   20.2325   -1.9223  -10.3997 C   0  0  0  0  0  0  0  0  0  0  0  0
   21.4975   -1.1132  -10.2239 C   0  0  0  0  0  0  0  0  0  0  0  0
   26.2487   -1.0367   -9.5933 C   0  0  0  0  0  0  0  0  0  0  0  0
  1  2  3  0
  2  3  1  0
  3  4  2  0
  4  5  1  0
  5  6  2  0
  6  7  1  0
  6  8  1  0
  8  9  1  0
 10  9  1  1
 11 10  1  1
 11 12  1  0
 12 13  1  1
 14 11  1  1
 15 14  1  6
 16 15  1  6
  8 17  2  0
 17  3  1  0
 16 11  1  0
M  END
$$$$
