_rank15
     RDKit          3D

 17 18  0  0  0  0  0  0  0  0999 V2000
   21.5246   -2.2049   -9.1270 C   0  0  0  0  0  0  0  0  0  0  0  0
   21.7703   -1.9852  -10.5142 N   0  0  0  0  0  0  0  0  0  0  0  0
   21.9813   -0.5965  -10.8476 C   0  0  2  0  0  0  0  0  0  0  0  0
   21.1820   -0.1521  -12.0472 C   0  0  0  0  0  0  0  0  0  0  0  0
   21.9275   -0.9075  -13.1514 C   0  0  0  0  0  0  0  0  0  0  0  0
   23.3551   -0.5129  -12.8496 C   0  0  0  0  0  0  0  0  0  0  0  0
   23.4027   -0.3441  -11.3204 C   0  0  2  0  0  0  0  0  0  0  0  0
   24.3317   -1.1658  -10.7419 O   0  0  0  0  0  0  0  0  0  0  0  0
   25.3244   -0.7722   -9.8928 C   0  0  0  0  0  0  0  0  0  0  0  0
   25.3863    0.4233   -9.2123 C   0  0  0  0  0  0  0  0  0  0  0  0
   26.4240    0.7775   -8.3555 C   0  0  0  0  0  0  0  0  0  0  0  0
   26.3645    1.9986   -7.7393 F   0  0  0  0  0  0  0  0  0  0  0  0
   27.4477   -0.0953   -8.1652 C   0  0  0  0  0  0  0  0  0  0  0  0
   27.4490   -1.3076   -8.8140 C   0  0  0  0  0  0  0  0  0  0  0  0
   28.5542   -2.1789   -8.5705 C   0  0  0  0  0  0  0  0  0  0  0  0
   29.4448   -2.9049   -8.3795 N   0  0  0  0  0  0  0  0  0  0  0  0
   26.4185   -1.6348   -9.6518 C   0  0  0  0  0  0  0  0  0  0  0  0
  1  2  1  6
  3  2  1  6
  3  4  1  0
  4  5  1  1
  5  6  1  1
  6  7  1  1
  7  8  1  1
  8  9  1  0
  9 10  2  0
 10 11  1  0
 11 12  1  0
 11 13  2  0
 13 14  1  0
 14 15  1  0
 15 16  3  0
 14 17  2  0
  7  3  1  0
 17  9  1  0
M  END
$$$$
