_rank8
     RDKit          3D

 17 18  0  0  0  0  0  0  0  0999 V2000
   28.0267    0.8354  -12.3628 C   0  0  0  0  0  0  0  0  0  0  0  0
   26.9120    0.2976  -11.6550 N   0  0  0  0  0  0  0  0  0  0  0  0
   26.5384    1.0733  -10.4962 C   0  0  2  0  0  0  0  0  0  0  0  0
   27.6608    1.2172   -9.4986 C   0  0  0  0  0  0  0  0  0  0  0  0
   27.7243   -0.2184   -8.9689 C   0  0  0  0  0  0  0  0  0  0  0  0
   26.2710   -0.4593   -8.6302 C   0  0  0  0  0  0  0  0  0  0  0  0
   25.4831    0.3645   -9.6645 C   0  0  2  0  0  0  0  0  0  0  0  0
   24.6312   -0.4143  -10.3998 O   0  0  0  0  0  0  0  0  0  0  0  0
   23.2704   -0.4170  -10.3026 C   0  0  0  0  0  0  0  0  0  0  0  0
   22.4827    0.6317   -9.8833 C   0  0  0  0  0  0  0  0  0  0  0  0
   21.0945    0.5776   -9.8018 C   0  0  0  0  0  0  0  0  0  0  0  0
   20.4290    1.6927   -9.3684 F   0  0  0  0  0  0  0  0  0  0  0  0
   20.4588   -0.5707  -10.1528 C   0  0  0  0  0  0  0  0  0  0  0  0
   21.1848   -1.6571  -10.5806 C   0  0  0  0  0  0  0  0  0  0  0  0
   20.4558   -2.8332  -10.9345 C   0  0  0  0  0  0  0  0  0  0  0  0
   19.8787   -3.8012  -11.2286 N   0  0  0  0  0  0  0  0  0  0  0  0
   22.5487   -1.5813  -10.6529 C   0  0  0  0  0  0  0  0  0  0  0  0
  1  2  1  6
  3  2  1  6
  3  4  1  0
  4  5  1  1
  5  6  1  1
  6  7  1  1
  7  8  1  6
  8  9  1  0
  9 10  2  0
 10 11  1  0
 11 12  1  0
 11 13  2  0
 13 14  1  0
 14 15  1  0
 15 16  3  0
 14 17  2  0
  7  3  1  0
 17  9  1  0
M  END
$$$$
