_rank11
     RDKit          3D

 17 18  0  0  0  0  0  0  0  0999 V2000
   21.1977   -3.4874  -10.2618 C   0  0  0  0  0  0  0  0  0  0  0  0
   21.0867   -2.3856  -11.1598 N   0  0  0  0  0  0  0  0  0  0  0  0
   20.9090   -1.1171  -10.4940 C   0  0  2  0  0  0  0  0  0  0  0  0
   19.5834   -0.4691  -10.8080 C   0  0  0  0  0  0  0  0  0  0  0  0
   19.8230   -0.0808  -12.2700 C   0  0  0  0  0  0  0  0  0  0  0  0
   21.1489    0.6364  -12.1583 C   0  0  0  0  0  0  0  0  0  0  0  0
   21.8856   -0.0733  -11.0081 C   0  0  2  0  0  0  0  0  0  0  0  0
   23.0870   -0.5911  -11.4101 O   0  0  0  0  0  0  0  0  0  0  0  0
   24.2633   -0.4985  -10.7253 C   0  0  0  0  0  0  0  0  0  0  0  0
   24.4047   -0.4240   -9.3576 C   0  0  0  0  0  0  0  0  0  0  0  0
   25.6309   -0.3305   -8.7065 C   0  0  0  0  0  0  0  0  0  0  0  0
   25.6328   -0.2630   -7.3392 F   0  0  0  0  0  0  0  0  0  0  0  0
   26.7697   -0.3101   -9.4472 C   0  0  0  0  0  0  0  0  0  0  0  0
   26.7009   -0.3811  -10.8186 C   0  0  0  0  0  0  0  0  0  0  0  0
   27.9345   -0.3549  -11.5380 C   0  0  0  0  0  0  0  0  0  0  0  0
   28.9363   -0.3146  -12.1308 N   0  0  0  0  0  0  0  0  0  0  0  0
   25.4844   -0.4725  -11.4375 C   0  0  0  0  0  0  0  0  0  0  0  0
  1  2  1  6
  3  2  1  6
  3  4  1  0
  4  5  1  1
  5  6  1  1
  6  7  1  1
  7  8  1  6
  8  9  1  0
  9 10  2  0
 10 11  1  0
 11 12  1  0
 11 13  2  0
 13 14  1  0
 14 15  1  0
 15 16  3  0
 14 17  2  0
  7  3  1  0
 17  9  1  0
M  END
$$$$
