_rank1
     RDKit          3D

 17 18  0  0  0  0  0  0  0  0999 V2000
   27.3614   -1.8265  -10.4264 C   0  0  0  0  0  0  0  0  0  0  0  0
   26.3072   -0.8684  -10.4862 N   0  0  0  0  0  0  0  0  0  0  0  0
   25.7683   -0.6889  -11.8133 C   0  0  2  0  0  0  0  0  0  0  0  0
   26.4449    0.4222  -12.5770 C   0  0  0  0  0  0  0  0  0  0  0  0
   25.9129    1.6319  -11.8029 C   0  0  0  0  0  0  0  0  0  0  0  0
   24.4300    1.3387  -11.8045 C   0  0  0  0  0  0  0  0  0  0  0  0
   24.3316   -0.1970  -11.7724 C   0  0  2  0  0  0  0  0  0  0  0  0
   23.6253   -0.6435  -10.6885 O   0  0  0  0  0  0  0  0  0  0  0  0
   22.2695   -0.7816  -10.6233 C   0  0  0  0  0  0  0  0  0  0  0  0
   21.5533   -1.9222  -10.9097 C   0  0  0  0  0  0  0  0  0  0  0  0
   20.1670   -2.0112  -10.8273 C   0  0  0  0  0  0  0  0  0  0  0  0
   19.5767   -3.2062  -11.1399 F   0  0  0  0  0  0  0  0  0  0  0  0
   19.4588   -0.9173  -10.4428 C   0  0  0  0  0  0  0  0  0  0  0  0
   20.1112    0.2550  -10.1419 C   0  0  0  0  0  0  0  0  0  0  0  0
   19.3083    1.3674   -9.7444 C   0  0  0  0  0  0  0  0  0  0  0  0
   18.6521    2.2665   -9.4016 N   0  0  0  0  0  0  0  0  0  0  0  0
   21.4748    0.3197  -10.2298 C   0  0  0  0  0  0  0  0  0  0  0  0
  1  2  1  6
  3  2  1  1
  3  4  1  0
  4  5  1  1
  5  6  1  1
  6  7  1  1
  7  8  1  1
  8  9  1  0
  9 10  2  0
 10 11  1  0
 11 12  1  0
 11 13  2  0
 13 14  1  0
 14 15  1  0
 15 16  3  0
 14 17  2  0
  7  3  1  0
 17  9  1  0
M  END
$$$$
