_rank6
     RDKit          3D

 17 18  0  0  0  0  0  0  0  0999 V2000
   27.1664   -1.7223   -8.9844 C   0  0  0  0  0  0  0  0  0  0  0  0
   26.1825   -0.9161   -9.6285 N   0  0  0  0  0  0  0  0  0  0  0  0
   25.9517   -1.2817  -11.0059 C   0  0  2  0  0  0  0  0  0  0  0  0
   27.1632   -1.0731  -11.8802 C   0  0  0  0  0  0  0  0  0  0  0  0
   27.2007    0.4576  -11.9126 C   0  0  0  0  0  0  0  0  0  0  0  0
   25.7725    0.7672  -12.2990 C   0  0  0  0  0  0  0  0  0  0  0  0
   24.9393   -0.3622  -11.6670 C   0  0  2  0  0  0  0  0  0  0  0  0
   23.9879    0.1199  -10.8095 O   0  0  0  0  0  0  0  0  0  0  0  0
   22.6842   -0.2790  -10.7606 C   0  0  0  0  0  0  0  0  0  0  0  0
   22.1044   -1.2610  -11.5324 C   0  0  0  0  0  0  0  0  0  0  0  0
   20.7660   -1.6312  -11.4434 C   0  0  0  0  0  0  0  0  0  0  0  0
   20.3143   -2.6247  -12.2699 F   0  0  0  0  0  0  0  0  0  0  0  0
   19.9658   -0.9973  -10.5468 C   0  0  0  0  0  0  0  0  0  0  0  0
   20.4802   -0.0065   -9.7442 C   0  0  0  0  0  0  0  0  0  0  0  0
   19.5861    0.6198   -8.8232 C   0  0  0  0  0  0  0  0  0  0  0  0
   18.8504    1.1426   -8.0870 N   0  0  0  0  0  0  0  0  0  0  0  0
   21.7991    0.3411   -9.8488 C   0  0  0  0  0  0  0  0  0  0  0  0
  1  2  1  6
  3  2  1  1
  3  4  1  0
  4  5  1  1
  5  6  1  1
  6  7  1  1
  7  8  1  1
  8  9  1  0
  9 10  2  0
 10 11  1  0
 11 12  1  0
 11 13  2  0
 13 14  1  0
 14 15  1  0
 15 16  3  0
 14 17  2  0
  7  3  1  0
 17  9  1  0
M  END
$$$$
