_rank2
     RDKit          3D

 17 18  0  0  0  0  0  0  0  0999 V2000
   26.5071    1.4051   -8.5833 C   0  0  0  0  0  0  0  0  0  0  0  0
   25.7305    0.9832   -9.7021 N   0  0  0  0  0  0  0  0  0  0  0  0
   25.6985   -0.4500   -9.8719 C   0  0  2  0  0  0  0  0  0  0  0  0
   26.9662   -0.9984  -10.4785 C   0  0  0  0  0  0  0  0  0  0  0  0
   26.8258   -0.4609  -11.9057 C   0  0  0  0  0  0  0  0  0  0  0  0
   25.4227   -0.9122  -12.2410 C   0  0  0  0  0  0  0  0  0  0  0  0
   24.6640   -0.8687  -10.9024 C   0  0  2  0  0  0  0  0  0  0  0  0
   23.5732   -0.0440  -10.9572 O   0  0  0  0  0  0  0  0  0  0  0  0
   22.2806   -0.4169  -10.7305 C   0  0  0  0  0  0  0  0  0  0  0  0
   21.6554   -1.5341  -11.2376 C   0  0  0  0  0  0  0  0  0  0  0  0
   20.3309   -1.8705  -10.9753 C   0  0  0  0  0  0  0  0  0  0  0  0
   19.8295   -3.0110  -11.5429 F   0  0  0  0  0  0  0  0  0  0  0  0
   19.5926   -1.0605  -10.1724 C   0  0  0  0  0  0  0  0  0  0  0  0
   20.1548    0.0720   -9.6322 C   0  0  0  0  0  0  0  0  0  0  0  0
   19.3247    0.8802   -8.7969 C   0  0  0  0  0  0  0  0  0  0  0  0
   18.6378    1.5458   -8.1322 N   0  0  0  0  0  0  0  0  0  0  0  0
   21.4589    0.3832   -9.9037 C   0  0  0  0  0  0  0  0  0  0  0  0
  1  2  1  6
  3  2  1  6
  3  4  1  0
  4  5  1  1
  5  6  1  1
  6  7  1  1
  7  8  1  6
  8  9  1  0
  9 10  2  0
 10 11  1  0
 11 12  1  0
 11 13  2  0
 13 14  1  0
 14 15  1  0
 15 16  3  0
 14 17  2  0
  7  3  1  0
 17  9  1  0
M  END
$$$$
