_rank16
     RDKit          3D

 17 18  0  0  0  0  0  0  0  0999 V2000
   21.1784   -2.6102   -9.9545 C   0  0  0  0  0  0  0  0  0  0  0  0
   21.9757   -2.0584  -10.9999 N   0  0  0  0  0  0  0  0  0  0  0  0
   22.1817   -0.6350  -10.8753 C   0  0  2  0  0  0  0  0  0  0  0  0
   21.5236    0.1530  -11.9805 C   0  0  0  0  0  0  0  0  0  0  0  0
   22.4244   -0.2424  -13.1544 C   0  0  0  0  0  0  0  0  0  0  0  0
   23.7900    0.0345  -12.5686 C   0  0  0  0  0  0  0  0  0  0  0  0
   23.6419   -0.2620  -11.0655 C   0  0  2  0  0  0  0  0  0  0  0  0
   24.5179   -1.2252  -10.6435 O   0  0  0  0  0  0  0  0  0  0  0  0
   25.5258   -1.0452   -9.7419 C   0  0  0  0  0  0  0  0  0  0  0  0
   25.7980   -1.8461   -8.6554 C   0  0  0  0  0  0  0  0  0  0  0  0
   26.8413   -1.6183   -7.7632 C   0  0  0  0  0  0  0  0  0  0  0  0
   27.0035   -2.4924   -6.7221 F   0  0  0  0  0  0  0  0  0  0  0  0
   27.6521   -0.5457   -7.9585 C   0  0  0  0  0  0  0  0  0  0  0  0
   27.4367    0.2958   -9.0243 C   0  0  0  0  0  0  0  0  0  0  0  0
   28.3248    1.4045   -9.1727 C   0  0  0  0  0  0  0  0  0  0  0  0
   29.0585    2.3031   -9.2766 N   0  0  0  0  0  0  0  0  0  0  0  0
   26.4049    0.0525   -9.8888 C   0  0  0  0  0  0  0  0  0  0  0  0
  1  2  1  6
  3  2  1  6
  3  4  1  0
  4  5  1  1
  5  6  1  1
  6  7  1  1
  7  8  1  6
  8  9  1  0
  9 10  2  0
 10 11  1  0
 11 12  1  0
 11 13  2  0
 13 14  1  0
 14 15  1  0
 15 16  3  0
 14 17  2  0
  7  3  1  0
 17  9  1  0
M  END
$$$$
