_rank5
     RDKit          3D

 17 18  0  0  0  0  0  0  0  0999 V2000
   27.8173    0.2077   -9.2846 C   0  0  0  0  0  0  0  0  0  0  0  0
   26.4418    0.0695   -9.6338 N   0  0  0  0  0  0  0  0  0  0  0  0
   26.2253   -0.7482  -10.8036 C   0  0  2  0  0  0  0  0  0  0  0  0
   27.0833   -0.3378  -11.9745 C   0  0  0  0  0  0  0  0  0  0  0  0
   26.4153    0.9929  -12.3333 C   0  0  0  0  0  0  0  0  0  0  0  0
   24.9661    0.5701  -12.4095 C   0  0  0  0  0  0  0  0  0  0  0  0
   24.8287   -0.5566  -11.3698 C   0  0  2  0  0  0  0  0  0  0  0  0
   23.8832   -0.2690  -10.4231 O   0  0  0  0  0  0  0  0  0  0  0  0
   22.5378   -0.4479  -10.5612 C   0  0  0  0  0  0  0  0  0  0  0  0
   21.9162   -1.2777  -11.4674 C   0  0  0  0  0  0  0  0  0  0  0  0
   20.5361   -1.4247  -11.5679 C   0  0  0  0  0  0  0  0  0  0  0  0
   20.0453   -2.2841  -12.5138 F   0  0  0  0  0  0  0  0  0  0  0  0
   19.7358   -0.7153  -10.7300 C   0  0  0  0  0  0  0  0  0  0  0  0
   20.2907    0.1323   -9.8004 C   0  0  0  0  0  0  0  0  0  0  0  0
   19.3940    0.8485   -8.9502 C   0  0  0  0  0  0  0  0  0  0  0  0
   18.6779    1.4354   -8.2435 N   0  0  0  0  0  0  0  0  0  0  0  0
   21.6501    0.2612   -9.7195 C   0  0  0  0  0  0  0  0  0  0  0  0
  1  2  1  6
  3  2  1  1
  3  4  1  0
  4  5  1  1
  5  6  1  1
  6  7  1  1
  7  8  1  1
  8  9  1  0
  9 10  2  0
 10 11  1  0
 11 12  1  0
 11 13  2  0
 13 14  1  0
 14 15  1  0
 15 16  3  0
 14 17  2  0
  7  3  1  0
 17  9  1  0
M  END
$$$$
