_rank18
     RDKit          3D

 17 18  0  0  0  0  0  0  0  0999 V2000
   20.4483   -2.2325  -10.4092 C   0  0  0  0  0  0  0  0  0  0  0  0
   21.3910   -1.9270  -11.4343 N   0  0  0  0  0  0  0  0  0  0  0  0
   21.5331   -0.5118  -11.6812 C   0  0  2  0  0  0  0  0  0  0  0  0
   21.1536   -0.1196  -13.0876 C   0  0  0  0  0  0  0  0  0  0  0  0
   22.3236   -0.7412  -13.8561 C   0  0  0  0  0  0  0  0  0  0  0  0
   23.4968   -0.1939  -13.0759 C   0  0  0  0  0  0  0  0  0  0  0  0
   22.9878   -0.0776  -11.6279 C   0  0  2  0  0  0  0  0  0  0  0  0
   23.7504   -0.8060  -10.7556 O   0  0  0  0  0  0  0  0  0  0  0  0
   24.4510   -0.3030   -9.6986 C   0  0  0  0  0  0  0  0  0  0  0  0
   23.9176    0.1742   -8.5222 C   0  0  0  0  0  0  0  0  0  0  0  0
   24.6782    0.6781   -7.4715 C   0  0  0  0  0  0  0  0  0  0  0  0
   24.0228    1.1219   -6.3544 F   0  0  0  0  0  0  0  0  0  0  0  0
   26.0309    0.7100   -7.5940 C   0  0  0  0  0  0  0  0  0  0  0  0
   26.6296    0.2490   -8.7427 C   0  0  0  0  0  0  0  0  0  0  0  0
   28.0551    0.3104   -8.8077 C   0  0  0  0  0  0  0  0  0  0  0  0
   29.2173    0.3471   -8.8761 N   0  0  0  0  0  0  0  0  0  0  0  0
   25.8622   -0.2422   -9.7630 C   0  0  0  0  0  0  0  0  0  0  0  0
  1  2  1  6
  3  2  1  6
  3  4  1  0
  4  5  1  1
  5  6  1  1
  6  7  1  1
  7  8  1  1
  8  9  1  0
  9 10  2  0
 10 11  1  0
 11 12  1  0
 11 13  2  0
 13 14  1  0
 14 15  1  0
 15 16  3  0
 14 17  2  0
  7  3  1  0
 17  9  1  0
M  END
$$$$
