_rank14
     RDKit          3D

 17 18  0  0  0  0  0  0  0  0999 V2000
   24.3211    0.4480  -13.3576 C   0  0  0  0  0  0  0  0  0  0  0  0
   23.5742    0.2836  -12.1543 N   0  0  0  0  0  0  0  0  0  0  0  0
   23.3740   -1.0978  -11.7863 C   0  0  2  0  0  0  0  0  0  0  0  0
   22.0748   -1.6619  -12.3054 C   0  0  0  0  0  0  0  0  0  0  0  0
   21.0868   -0.9026  -11.4149 C   0  0  0  0  0  0  0  0  0  0  0  0
   21.6774   -1.1662  -10.0487 C   0  0  0  0  0  0  0  0  0  0  0  0
   23.1954   -1.2574  -10.2862 C   0  0  2  0  0  0  0  0  0  0  0  0
   23.8870   -0.3369   -9.5463 O   0  0  0  0  0  0  0  0  0  0  0  0
   25.1722   -0.4704   -9.1084 C   0  0  0  0  0  0  0  0  0  0  0  0
   25.6409   -1.4334   -8.2429 C   0  0  0  0  0  0  0  0  0  0  0  0
   26.9653   -1.5262   -7.8261 C   0  0  0  0  0  0  0  0  0  0  0  0
   27.3012   -2.5330   -6.9614 F   0  0  0  0  0  0  0  0  0  0  0  0
   27.8663   -0.6213   -8.2898 C   0  0  0  0  0  0  0  0  0  0  0  0
   27.4658    0.3674   -9.1574 C   0  0  0  0  0  0  0  0  0  0  0  0
   28.4622    1.2864   -9.6073 C   0  0  0  0  0  0  0  0  0  0  0  0
   29.2753    2.0263   -9.9920 N   0  0  0  0  0  0  0  0  0  0  0  0
   26.1585    0.4396   -9.5538 C   0  0  0  0  0  0  0  0  0  0  0  0
  1  2  1  6
  3  2  1  1
  3  4  1  0
  4  5  1  1
  5  6  1  1
  6  7  1  1
  7  8  1  1
  8  9  1  0
  9 10  2  0
 10 11  1  0
 11 12  1  0
 11 13  2  0
 13 14  1  0
 14 15  1  0
 15 16  3  0
 14 17  2  0
  7  3  1  0
 17  9  1  0
M  END
$$$$
