_rank9
     RDKit          3D

 17 18  0  0  0  0  0  0  0  0999 V2000
   21.2412   -2.4009  -12.8392 C   0  0  0  0  0  0  0  0  0  0  0  0
   21.9347   -1.4715  -12.0095 N   0  0  0  0  0  0  0  0  0  0  0  0
   21.6242   -1.6105  -10.6066 C   0  0  2  0  0  0  0  0  0  0  0  0
   20.1593   -1.4115  -10.3063 C   0  0  0  0  0  0  0  0  0  0  0  0
   20.0447    0.0953  -10.5555 C   0  0  0  0  0  0  0  0  0  0  0  0
   21.1928    0.6087   -9.7170 C   0  0  0  0  0  0  0  0  0  0  0  0
   22.2558   -0.5028   -9.7810 C   0  0  2  0  0  0  0  0  0  0  0  0
   23.4445   -0.0479  -10.2839 O   0  0  0  0  0  0  0  0  0  0  0  0
   24.6684   -0.2077   -9.7028 C   0  0  0  0  0  0  0  0  0  0  0  0
   25.0314   -1.2122   -8.8338 C   0  0  0  0  0  0  0  0  0  0  0  0
   26.2968   -1.3307   -8.2670 C   0  0  0  0  0  0  0  0  0  0  0  0
   26.5281   -2.3783   -7.4166 F   0  0  0  0  0  0  0  0  0  0  0  0
   27.2459   -0.4094   -8.5771 C   0  0  0  0  0  0  0  0  0  0  0  0
   26.9507    0.6206   -9.4388 C   0  0  0  0  0  0  0  0  0  0  0  0
   27.9928    1.5550   -9.7231 C   0  0  0  0  0  0  0  0  0  0  0  0
   28.8479    2.3059   -9.9713 N   0  0  0  0  0  0  0  0  0  0  0  0
   25.7000    0.7174   -9.9843 C   0  0  0  0  0  0  0  0  0  0  0  0
  1  2  1  6
  3  2  1  6
  3  4  1  0
  4  5  1  1
  5  6  1  1
  6  7  1  1
  7  8  1  6
  8  9  1  0
  9 10  2  0
 10 11  1  0
 11 12  1  0
 11 13  2  0
 13 14  1  0
 14 15  1  0
 15 16  3  0
 14 17  2  0
  7  3  1  0
 17  9  1  0
M  END
$$$$
