_rank13
     RDKit          3D

 17 18  0  0  0  0  0  0  0  0999 V2000
   20.9027   -0.0054   -8.5970 C   0  0  0  0  0  0  0  0  0  0  0  0
   20.8859   -0.8783   -9.7242 N   0  0  0  0  0  0  0  0  0  0  0  0
   21.6139   -0.3644  -10.8600 C   0  0  2  0  0  0  0  0  0  0  0  0
   20.9961   -0.7550  -12.1796 C   0  0  0  0  0  0  0  0  0  0  0  0
   21.3218   -2.2515  -12.1870 C   0  0  0  0  0  0  0  0  0  0  0  0
   22.8022   -2.2201  -11.8831 C   0  0  0  0  0  0  0  0  0  0  0  0
   22.9920   -0.9934  -10.9729 C   0  0  2  0  0  0  0  0  0  0  0  0
   23.5465   -1.3294   -9.7677 O   0  0  0  0  0  0  0  0  0  0  0  0
   24.8759   -1.2887   -9.4636 C   0  0  0  0  0  0  0  0  0  0  0  0
   25.7858   -2.3041   -9.6556 C   0  0  0  0  0  0  0  0  0  0  0  0
   27.1350   -2.2117   -9.3274 C   0  0  0  0  0  0  0  0  0  0  0  0
   27.9344   -3.2963   -9.5698 F   0  0  0  0  0  0  0  0  0  0  0  0
   27.6026   -1.0579   -8.7834 C   0  0  0  0  0  0  0  0  0  0  0  0
   26.7479   -0.0034   -8.5645 C   0  0  0  0  0  0  0  0  0  0  0  0
   27.3030    1.1805   -7.9900 C   0  0  0  0  0  0  0  0  0  0  0  0
   27.7394    2.1476   -7.5094 N   0  0  0  0  0  0  0  0  0  0  0  0
   25.4253   -0.1165   -8.8949 C   0  0  0  0  0  0  0  0  0  0  0  0
  1  2  1  6
  3  2  1  1
  3  4  1  0
  4  5  1  1
  5  6  1  1
  6  7  1  1
  7  8  1  1
  8  9  1  0
  9 10  2  0
 10 11  1  0
 11 12  1  0
 11 13  2  0
 13 14  1  0
 14 15  1  0
 15 16  3  0
 14 17  2  0
  7  3  1  0
 17  9  1  0
M  END
$$$$
