_rank10
     RDKit          3D

 17 18  0  0  0  0  0  0  0  0999 V2000
   20.8202   -0.6237   -8.0627 C   0  0  0  0  0  0  0  0  0  0  0  0
   20.9861   -1.2774   -9.3190 N   0  0  0  0  0  0  0  0  0  0  0  0
   21.1489   -0.3641  -10.4250 C   0  0  2  0  0  0  0  0  0  0  0  0
   20.2136   -0.6571  -11.5717 C   0  0  0  0  0  0  0  0  0  0  0  0
   20.8308   -1.9616  -12.0846 C   0  0  0  0  0  0  0  0  0  0  0  0
   22.2814   -1.5565  -12.2133 C   0  0  0  0  0  0  0  0  0  0  0  0
   22.5046   -0.5273  -11.0908 C   0  0  2  0  0  0  0  0  0  0  0  0
   23.4991   -0.9112  -10.2326 O   0  0  0  0  0  0  0  0  0  0  0  0
   24.8242   -0.6147  -10.3655 C   0  0  0  0  0  0  0  0  0  0  0  0
   25.5135   -0.4832  -11.5502 C   0  0  0  0  0  0  0  0  0  0  0  0
   26.8690   -0.1788  -11.6316 C   0  0  0  0  0  0  0  0  0  0  0  0
   27.4345   -0.0764  -12.8741 F   0  0  0  0  0  0  0  0  0  0  0  0
   27.5728    0.0035  -10.4838 C   0  0  0  0  0  0  0  0  0  0  0  0
   26.9462   -0.1132   -9.2655 C   0  0  0  0  0  0  0  0  0  0  0  0
   27.7429    0.0905   -8.0977 C   0  0  0  0  0  0  0  0  0  0  0  0
   28.4087    0.2606   -7.1572 N   0  0  0  0  0  0  0  0  0  0  0  0
   25.6128   -0.4131   -9.2093 C   0  0  0  0  0  0  0  0  0  0  0  0
  1  2  1  6
  3  2  1  1
  3  4  1  0
  4  5  1  1
  5  6  1  1
  6  7  1  1
  7  8  1  1
  8  9  1  0
  9 10  2  0
 10 11  1  0
 11 12  1  0
 11 13  2  0
 13 14  1  0
 14 15  1  0
 15 16  3  0
 14 17  2  0
  7  3  1  0
 17  9  1  0
M  END
$$$$
