_rank4
     RDKit          3D

 17 18  0  0  0  0  0  0  0  0999 V2000
   27.4386    0.0993   -8.8475 C   0  0  0  0  0  0  0  0  0  0  0  0
   26.1681    0.1544   -9.4921 N   0  0  0  0  0  0  0  0  0  0  0  0
   25.9912   -0.8622  -10.5017 C   0  0  2  0  0  0  0  0  0  0  0  0
   27.1618   -0.9605  -11.4481 C   0  0  0  0  0  0  0  0  0  0  0  0
   26.9844    0.3509  -12.2190 C   0  0  0  0  0  0  0  0  0  0  0  0
   25.5270    0.2549  -12.6086 C   0  0  0  0  0  0  0  0  0  0  0  0
   24.8601   -0.5145  -11.4542 C   0  0  2  0  0  0  0  0  0  0  0  0
   23.8503    0.2043  -10.8740 O   0  0  0  0  0  0  0  0  0  0  0  0
   22.5501   -0.1944  -10.7645 C   0  0  0  0  0  0  0  0  0  0  0  0
   22.0153   -1.3672  -11.2487 C   0  0  0  0  0  0  0  0  0  0  0  0
   20.6785   -1.7278  -11.1101 C   0  0  0  0  0  0  0  0  0  0  0  0
   20.2740   -2.9242  -11.6387 F   0  0  0  0  0  0  0  0  0  0  0  0
   19.8332   -0.8853  -10.4608 C   0  0  0  0  0  0  0  0  0  0  0  0
   20.3014    0.3032   -9.9520 C   0  0  0  0  0  0  0  0  0  0  0  0
   19.3613    1.1432   -9.2808 C   0  0  0  0  0  0  0  0  0  0  0  0
   18.5927    1.8141   -8.7189 N   0  0  0  0  0  0  0  0  0  0  0  0
   21.6196    0.6373  -10.0999 C   0  0  0  0  0  0  0  0  0  0  0  0
  1  2  1  6
  3  2  1  1
  3  4  1  0
  4  5  1  1
  5  6  1  1
  6  7  1  1
  7  8  1  1
  8  9  1  0
  9 10  2  0
 10 11  1  0
 11 12  1  0
 11 13  2  0
 13 14  1  0
 14 15  1  0
 15 16  3  0
 14 17  2  0
  7  3  1  0
 17  9  1  0
M  END
$$$$
