_rank19
     RDKit          3D

 17 18  0  0  0  0  0  0  0  0999 V2000
   24.7126   -3.5686  -14.0096 C   0  0  0  0  0  0  0  0  0  0  0  0
   24.6203   -2.4230  -13.1657 N   0  0  0  0  0  0  0  0  0  0  0  0
   23.8833   -1.3316  -13.7568 C   0  0  2  0  0  0  0  0  0  0  0  0
   24.7709   -0.3382  -14.4646 C   0  0  0  0  0  0  0  0  0  0  0  0
   25.4604    0.3022  -13.2562 C   0  0  0  0  0  0  0  0  0  0  0  0
   24.2647    0.6456  -12.3976 C   0  0  0  0  0  0  0  0  0  0  0  0
   23.2335   -0.4568  -12.6985 C   0  0  2  0  0  0  0  0  0  0  0  0
   22.8649   -1.1368  -11.5695 O   0  0  0  0  0  0  0  0  0  0  0  0
   22.3021   -0.5854  -10.4557 C   0  0  0  0  0  0  0  0  0  0  0  0
   21.0914    0.0678  -10.3943 C   0  0  0  0  0  0  0  0  0  0  0  0
   20.5606    0.6139   -9.2296 C   0  0  0  0  0  0  0  0  0  0  0  0
   19.3448    1.2386   -9.3050 F   0  0  0  0  0  0  0  0  0  0  0  0
   21.2641    0.5068   -8.0722 C   0  0  0  0  0  0  0  0  0  0  0  0
   22.4809   -0.1333   -8.0623 C   0  0  0  0  0  0  0  0  0  0  0  0
   23.1691   -0.2114   -6.8132 C   0  0  0  0  0  0  0  0  0  0  0  0
   23.7426   -0.2892   -5.8024 N   0  0  0  0  0  0  0  0  0  0  0  0
   22.9834   -0.6627   -9.2192 C   0  0  0  0  0  0  0  0  0  0  0  0
  1  2  1  6
  3  2  1  1
  3  4  1  0
  4  5  1  1
  5  6  1  1
  6  7  1  1
  7  8  1  1
  8  9  1  0
  9 10  2  0
 10 11  1  0
 11 12  1  0
 11 13  2  0
 13 14  1  0
 14 15  1  0
 15 16  3  0
 14 17  2  0
  7  3  1  0
 17  9  1  0
M  END
$$$$
