_rank3
     RDKit          3D

 19 21  0  0  0  0  0  0  0  0999 V2000
   28.0853   -1.9396   -8.7795 C   0  0  0  0  0  0  0  0  0  0  0  0
   27.2605   -0.4248   -8.4740 S   0  0  2  0  0  6  0  0  0  0  0  0
   28.2842    0.6468   -8.2326 O   0  0  0  0  0  0  0  0  0  0  0  0
   26.4668   -0.5654   -7.2065 O   0  0  0  0  0  0  0  0  0  0  0  0
   26.1915    0.0688   -9.7827 C   0  0  1  0  0  0  0  0  0  0  0  0
   26.9526    0.8765  -10.8097 C   0  0  0  0  0  0  0  0  0  0  0  0
   25.8914    1.5249  -11.7082 C   0  0  0  0  0  0  0  0  0  0  0  0
   25.2235    0.3852  -12.4517 C   0  0  0  0  0  0  0  0  0  0  0  0
   24.4901   -0.4495  -11.4383 C   0  0  2  0  0  0  0  0  0  0  0  0
   25.4457   -1.0532  -10.4131 C   0  0  0  0  0  0  0  0  0  0  0  0
   23.6137   -1.4166  -12.0049 N   0  0  0  0  0  0  0  0  0  0  0  0
   22.3241   -1.1760  -11.4542 C   0  0  0  0  0  0  0  0  0  0  0  0
   21.0991   -1.8224  -11.5529 C   0  0  0  0  0  0  0  0  0  0  0  0
   19.9824   -1.3584  -10.8944 C   0  0  0  0  0  0  0  0  0  0  0  0
   20.0306   -0.2318  -10.1078 C   0  0  0  0  0  0  0  0  0  0  0  0
   18.9130    0.2030   -9.4697 F   0  0  0  0  0  0  0  0  0  0  0  0
   21.2476    0.4153  -10.0063 C   0  0  0  0  0  0  0  0  0  0  0  0
   22.3630   -0.0424  -10.6600 C   0  0  0  0  0  0  0  0  0  0  0  0
   23.6584    0.4516  -10.6903 O   0  0  0  0  0  0  0  0  0  0  0  0
  2  1  1  6
  2  3  2  0
  2  4  2  0
  5  2  1  1
  6  5  1  1
  7  6  1  6
  8  7  1  1
  8  9  1  0
 10  9  1  1
  9 11  1  6
 11 12  1  0
 12 13  2  0
 13 14  1  0
 14 15  2  0
 15 16  1  0
 15 17  1  0
 17 18  2  0
 18 19  1  0
 10  5  1  0
 18 12  1  0
  9 19  1  0
M  END
$$$$
