_rank4
     RDKit          3D

 19 21  0  0  0  0  0  0  0  0999 V2000
   28.1695    0.9422   -8.3269 C   0  0  0  0  0  0  0  0  0  0  0  0
   26.9473   -0.2978   -8.5188 S   0  0  2  0  0  6  0  0  0  0  0  0
   26.1454   -0.3909   -7.2528 O   0  0  0  0  0  0  0  0  0  0  0  0
   27.6381   -1.6195   -8.6976 O   0  0  0  0  0  0  0  0  0  0  0  0
   25.8662   -0.0133   -9.8787 C   0  0  1  0  0  0  0  0  0  0  0  0
   26.6533    0.4048  -11.1003 C   0  0  0  0  0  0  0  0  0  0  0  0
   25.6233    0.9396  -12.1039 C   0  0  0  0  0  0  0  0  0  0  0  0
   24.7808   -0.2531  -12.5104 C   0  0  0  0  0  0  0  0  0  0  0  0
   24.0171   -0.7041  -11.2958 C   0  0  2  0  0  0  0  0  0  0  0  0
   24.9554   -1.1505  -10.1783 C   0  0  0  0  0  0  0  0  0  0  0  0
   22.9992   -1.6598  -11.5697 N   0  0  0  0  0  0  0  0  0  0  0  0
   21.7834   -1.1229  -11.0619 C   0  0  0  0  0  0  0  0  0  0  0  0
   20.4866   -1.6082  -10.9558 C   0  0  0  0  0  0  0  0  0  0  0  0
   19.4753   -0.8525  -10.4062 C   0  0  0  0  0  0  0  0  0  0  0  0
   19.7048    0.4192   -9.9368 C   0  0  0  0  0  0  0  0  0  0  0  0
   18.6878    1.1419   -9.3994 F   0  0  0  0  0  0  0  0  0  0  0  0
   20.9939    0.9069  -10.0401 C   0  0  0  0  0  0  0  0  0  0  0  0
   22.0050    0.1587  -10.5866 C   0  0  0  0  0  0  0  0  0  0  0  0
   23.3455    0.4562  -10.7802 O   0  0  0  0  0  0  0  0  0  0  0  0
  2  1  1  1
  2  3  2  0
  2  4  2  0
  5  2  1  1
  6  5  1  1
  7  6  1  6
  8  7  1  1
  8  9  1  0
 10  9  1  1
  9 11  1  6
 11 12  1  0
 12 13  2  0
 13 14  1  0
 14 15  2  0
 15 16  1  0
 15 17  1  0
 17 18  2  0
 18 19  1  0
 10  5  1  0
 18 12  1  0
  9 19  1  0
M  END
$$$$
