_rank17
     RDKit          3D

 19 21  0  0  0  0  0  0  0  0999 V2000
   19.4397    0.0869  -10.5398 C   0  0  0  0  0  0  0  0  0  0  0  0
   20.6561   -0.9623   -9.8413 S   0  0  2  0  0  6  0  0  0  0  0  0
   20.1670   -2.3807   -9.8995 O   0  0  0  0  0  0  0  0  0  0  0  0
   20.8069   -0.6106   -8.3888 O   0  0  0  0  0  0  0  0  0  0  0  0
   22.2222   -0.8484  -10.6371 C   0  0  1  0  0  0  0  0  0  0  0  0
   22.0609   -0.9516  -12.1371 C   0  0  0  0  0  0  0  0  0  0  0  0
   23.4709   -1.1743  -12.6993 C   0  0  0  0  0  0  0  0  0  0  0  0
   24.2346    0.1062  -12.4260 C   0  0  0  0  0  0  0  0  0  0  0  0
   24.3731    0.2423  -10.9346 C   0  0  2  0  0  0  0  0  0  0  0  0
   23.0120    0.3524  -10.2537 C   0  0  0  0  0  0  0  0  0  0  0  0
   25.2741    1.2642  -10.5244 N   0  0  0  0  0  0  0  0  0  0  0  0
   26.2419    0.6464   -9.6841 C   0  0  0  0  0  0  0  0  0  0  0  0
   27.3058    1.1223   -8.9292 C   0  0  0  0  0  0  0  0  0  0  0  0
   28.1016    0.2769   -8.1889 C   0  0  0  0  0  0  0  0  0  0  0  0
   27.8777   -1.0794   -8.1642 C   0  0  0  0  0  0  0  0  0  0  0  0
   28.6790   -1.8897   -7.4248 F   0  0  0  0  0  0  0  0  0  0  0  0
   26.8200   -1.5582   -8.9139 C   0  0  0  0  0  0  0  0  0  0  0  0
   26.0242   -0.7207   -9.6530 C   0  0  0  0  0  0  0  0  0  0  0  0
   24.9305   -0.9938  -10.4607 O   0  0  0  0  0  0  0  0  0  0  0  0
  2  1  1  6
  2  3  2  0
  2  4  2  0
  5  2  1  1
  6  5  1  1
  7  6  1  6
  8  7  1  1
  8  9  1  0
 10  9  1  1
  9 11  1  6
 11 12  1  0
 12 13  2  0
 13 14  1  0
 14 15  2  0
 15 16  1  0
 15 17  1  0
 17 18  2  0
 18 19  1  0
 10  5  1  0
 18 12  1  0
  9 19  1  0
M  END
$$$$
