_rank9
     RDKit          3D

 19 21  0  0  0  0  0  0  0  0999 V2000
   28.4861   -0.5285   -8.9379 C   0  0  0  0  0  0  0  0  0  0  0  0
   26.8699   -0.0694   -8.4424 S   0  0  2  0  0  6  0  0  0  0  0  0
   26.9157    1.3092   -7.8493 O   0  0  0  0  0  0  0  0  0  0  0  0
   26.4271   -1.0011   -7.3504 O   0  0  0  0  0  0  0  0  0  0  0  0
   25.6967   -0.1053   -9.7543 C   0  0  1  0  0  0  0  0  0  0  0  0
   26.4010   -0.1093  -11.0924 C   0  0  0  0  0  0  0  0  0  0  0  0
   25.3207    0.1916  -12.1394 C   0  0  0  0  0  0  0  0  0  0  0  0
   24.3879   -1.0032  -12.1297 C   0  0  0  0  0  0  0  0  0  0  0  0
   23.7046   -1.0343  -10.7903 C   0  0  2  0  0  0  0  0  0  0  0  0
   24.7076   -1.2118   -9.6541 C   0  0  0  0  0  0  0  0  0  0  0  0
   22.6203   -1.9521  -10.7110 N   0  0  0  0  0  0  0  0  0  0  0  0
   21.4792   -1.2067  -10.3029 C   0  0  0  0  0  0  0  0  0  0  0  0
   20.1726   -1.5467   -9.9785 C   0  0  0  0  0  0  0  0  0  0  0  0
   19.2496   -0.5949   -9.6067 C   0  0  0  0  0  0  0  0  0  0  0  0
   19.5814    0.7376   -9.5398 C   0  0  0  0  0  0  0  0  0  0  0  0
   18.6501    1.6548   -9.1698 F   0  0  0  0  0  0  0  0  0  0  0  0
   20.8808    1.0813   -9.8618 C   0  0  0  0  0  0  0  0  0  0  0  0
   21.8041    0.1376  -10.2328 C   0  0  0  0  0  0  0  0  0  0  0  0
   23.1376    0.2701  -10.5895 O   0  0  0  0  0  0  0  0  0  0  0  0
  2  1  1  6
  2  3  2  0
  2  4  2  0
  5  2  1  1
  6  5  1  1
  7  6  1  6
  8  7  1  1
  8  9  1  0
 10  9  1  1
  9 11  1  6
 11 12  1  0
 12 13  2  0
 13 14  1  0
 14 15  2  0
 15 16  1  0
 15 17  1  0
 17 18  2  0
 18 19  1  0
 10  5  1  0
 18 12  1  0
  9 19  1  0
M  END
$$$$
