_rank19
     RDKit          3D

 19 21  0  0  0  0  0  0  0  0999 V2000
   28.1337    0.4567   -9.5357 C   0  0  0  0  0  0  0  0  0  0  0  0
   27.0735   -0.9303   -9.3922 S   0  0  2  0  0  6  0  0  0  0  0  0
   27.5915   -1.8286   -8.3062 O   0  0  0  0  0  0  0  0  0  0  0  0
   27.1390   -1.7107  -10.6740 O   0  0  0  0  0  0  0  0  0  0  0  0
   25.4002   -0.5026   -9.0517 C   0  0  1  0  0  0  0  0  0  0  0  0
   25.3209    0.3900   -7.8336 C   0  0  0  0  0  0  0  0  0  0  0  0
   23.8402    0.4283   -7.4337 C   0  0  0  0  0  0  0  0  0  0  0  0
   23.1248    1.1524   -8.5569 C   0  0  0  0  0  0  0  0  0  0  0  0
   23.2251    0.2929   -9.7870 C   0  0  2  0  0  0  0  0  0  0  0  0
   24.6769    0.0877  -10.2097 C   0  0  0  0  0  0  0  0  0  0  0  0
   22.3970    0.7176  -10.8632 N   0  0  0  0  0  0  0  0  0  0  0  0
   21.5779   -0.3914  -11.2145 C   0  0  0  0  0  0  0  0  0  0  0  0
   20.6460   -0.6205  -12.2182 C   0  0  0  0  0  0  0  0  0  0  0  0
   19.9817   -1.8217  -12.3267 C   0  0  0  0  0  0  0  0  0  0  0  0
   20.2119   -2.8503  -11.4439 C   0  0  0  0  0  0  0  0  0  0  0  0
   19.5419   -4.0247  -11.5751 F   0  0  0  0  0  0  0  0  0  0  0  0
   21.1386   -2.6274  -10.4430 C   0  0  0  0  0  0  0  0  0  0  0  0
   21.8031   -1.4330  -10.3303 C   0  0  0  0  0  0  0  0  0  0  0  0
   22.7552   -1.0122   -9.4140 O   0  0  0  0  0  0  0  0  0  0  0  0
  2  1  1  6
  2  3  2  0
  2  4  2  0
  5  2  1  6
  6  5  1  1
  7  6  1  6
  8  7  1  1
  8  9  1  0
 10  9  1  1
  9 11  1  6
 11 12  1  0
 12 13  2  0
 13 14  1  0
 14 15  2  0
 15 16  1  0
 15 17  1  0
 17 18  2  0
 18 19  1  0
 10  5  1  0
 18 12  1  0
  9 19  1  0
M  END
$$$$
