_rank8
     RDKit          3D

 19 21  0  0  0  0  0  0  0  0999 V2000
   27.8438    1.0443   -8.1939 C   0  0  0  0  0  0  0  0  0  0  0  0
   26.8418   -0.3638   -8.4792 S   0  0  2  0  0  6  0  0  0  0  0  0
   26.0621   -0.6673   -7.2323 O   0  0  0  0  0  0  0  0  0  0  0  0
   27.7403   -1.5409   -8.7309 O   0  0  0  0  0  0  0  0  0  0  0  0
   25.7328   -0.1736   -9.8330 C   0  0  1  0  0  0  0  0  0  0  0  0
   26.4982    0.1025  -11.1076 C   0  0  0  0  0  0  0  0  0  0  0  0
   25.4575    0.5736  -12.1317 C   0  0  0  0  0  0  0  0  0  0  0  0
   24.5690   -0.6242  -12.4028 C   0  0  0  0  0  0  0  0  0  0  0  0
   23.8258   -0.9344  -11.1327 C   0  0  2  0  0  0  0  0  0  0  0  0
   24.7807   -1.3039  -10.0013 C   0  0  0  0  0  0  0  0  0  0  0  0
   22.7728   -1.8782  -11.2899 N   0  0  0  0  0  0  0  0  0  0  0  0
   21.5879   -1.2572  -10.8056 C   0  0  0  0  0  0  0  0  0  0  0  0
   20.2806   -1.6884  -10.6224 C   0  0  0  0  0  0  0  0  0  0  0  0
   19.3077   -0.8523  -10.1222 C   0  0  0  0  0  0  0  0  0  0  0  0
   19.5877    0.4498   -9.7810 C   0  0  0  0  0  0  0  0  0  0  0  0
   18.6078    1.2521   -9.2897 F   0  0  0  0  0  0  0  0  0  0  0  0
   20.8874    0.8839   -9.9615 C   0  0  0  0  0  0  0  0  0  0  0  0
   21.8604    0.0555  -10.4593 C   0  0  0  0  0  0  0  0  0  0  0  0
   23.2034    0.2902  -10.7130 O   0  0  0  0  0  0  0  0  0  0  0  0
  2  1  1  1
  2  3  2  0
  2  4  2  0
  5  2  1  1
  6  5  1  1
  7  6  1  6
  8  7  1  1
  8  9  1  0
 10  9  1  1
  9 11  1  6
 11 12  1  0
 12 13  2  0
 13 14  1  0
 14 15  2  0
 15 16  1  0
 15 17  1  0
 17 18  2  0
 18 19  1  0
 10  5  1  0
 18 12  1  0
  9 19  1  0
M  END
$$$$
