_rank13
     RDKit          3D

 19 21  0  0  0  0  0  0  0  0999 V2000
   26.7855    2.0815   -8.1709 C   0  0  0  0  0  0  0  0  0  0  0  0
   26.8452    0.3602   -8.4898 S   0  0  2  0  0  6  0  0  0  0  0  0
   26.5245   -0.3809   -7.2239 O   0  0  0  0  0  0  0  0  0  0  0  0
   28.2537   -0.0031   -8.8647 O   0  0  0  0  0  0  0  0  0  0  0  0
   25.7479   -0.1558   -9.7659 C   0  0  1  0  0  0  0  0  0  0  0  0
   26.5268   -0.6362  -10.9697 C   0  0  0  0  0  0  0  0  0  0  0  0
   25.5116   -0.7417  -12.1152 C   0  0  0  0  0  0  0  0  0  0  0  0
   24.5641   -1.8602  -11.7293 C   0  0  0  0  0  0  0  0  0  0  0  0
   23.8057   -1.4120  -10.5104 C   0  0  2  0  0  0  0  0  0  0  0  0
   24.7402   -1.1597   -9.3309 C   0  0  0  0  0  0  0  0  0  0  0  0
   22.7066   -2.2482  -10.1684 N   0  0  0  0  0  0  0  0  0  0  0  0
   21.5542   -1.4151  -10.1228 C   0  0  0  0  0  0  0  0  0  0  0  0
   20.2268   -1.6259   -9.7735 C   0  0  0  0  0  0  0  0  0  0  0  0
   19.2969   -0.6116   -9.8234 C   0  0  0  0  0  0  0  0  0  0  0  0
   19.6420    0.6581  -10.2223 C   0  0  0  0  0  0  0  0  0  0  0  0
   18.7034    1.6393  -10.2619 F   0  0  0  0  0  0  0  0  0  0  0  0
   20.9619    0.8731  -10.5710 C   0  0  0  0  0  0  0  0  0  0  0  0
   21.8923   -0.1333  -10.5232 C   0  0  0  0  0  0  0  0  0  0  0  0
   23.2455   -0.1275  -10.8262 O   0  0  0  0  0  0  0  0  0  0  0  0
  2  1  1  1
  2  3  2  0
  2  4  2  0
  5  2  1  1
  6  5  1  1
  7  6  1  6
  8  7  1  1
  8  9  1  0
 10  9  1  1
  9 11  1  1
 11 12  1  0
 12 13  2  0
 13 14  1  0
 14 15  2  0
 15 16  1  0
 15 17  1  0
 17 18  2  0
 18 19  1  0
 10  5  1  0
 18 12  1  0
  9 19  1  0
M  END
$$$$
