_rank1
     RDKit          3D

 19 21  0  0  0  0  0  0  0  0999 V2000
   27.6184   -1.9343   -8.1671 C   0  0  0  0  0  0  0  0  0  0  0  0
   27.1829   -0.2487   -8.3611 S   0  0  2  0  0  6  0  0  0  0  0  0
   28.4350    0.5596   -8.5441 O   0  0  0  0  0  0  0  0  0  0  0  0
   26.5392    0.2233   -7.0887 O   0  0  0  0  0  0  0  0  0  0  0  0
   26.0930    0.0436   -9.7122 C   0  0  1  0  0  0  0  0  0  0  0  0
   26.8560    0.5922  -10.8969 C   0  0  0  0  0  0  0  0  0  0  0  0
   25.7970    1.1149  -11.8763 C   0  0  0  0  0  0  0  0  0  0  0  0
   25.0440   -0.1064  -12.3653 C   0  0  0  0  0  0  0  0  0  0  0  0
   24.3067   -0.6857  -11.1894 C   0  0  2  0  0  0  0  0  0  0  0  0
   25.2673   -1.1340  -10.0918 C   0  0  0  0  0  0  0  0  0  0  0  0
   23.3611   -1.6917  -11.5331 N   0  0  0  0  0  0  0  0  0  0  0  0
   22.1070   -1.2750  -11.0061 C   0  0  0  0  0  0  0  0  0  0  0  0
   20.8474   -1.8563  -10.9444 C   0  0  0  0  0  0  0  0  0  0  0  0
   19.7814   -1.2100  -10.3597 C   0  0  0  0  0  0  0  0  0  0  0  0
   19.9169    0.0428   -9.8097 C   0  0  0  0  0  0  0  0  0  0  0  0
   18.8477    0.6567   -9.2393 F   0  0  0  0  0  0  0  0  0  0  0  0
   21.1686    0.6258   -9.8685 C   0  0  0  0  0  0  0  0  0  0  0  0
   22.2338   -0.0134  -10.4496 C   0  0  0  0  0  0  0  0  0  0  0  0
   23.5510    0.3897  -10.6099 O   0  0  0  0  0  0  0  0  0  0  0  0
  2  1  1  1
  2  3  2  0
  2  4  2  0
  5  2  1  1
  6  5  1  1
  7  6  1  6
  8  7  1  1
  8  9  1  0
 10  9  1  1
  9 11  1  6
 11 12  1  0
 12 13  2  0
 13 14  1  0
 14 15  2  0
 15 16  1  0
 15 17  1  0
 17 18  2  0
 18 19  1  0
 10  5  1  0
 18 12  1  0
  9 19  1  0
M  END
$$$$
