_rank11
     RDKit          3D

 19 21  0  0  0  0  0  0  0  0999 V2000
   28.5078   -0.4046   -8.9573 C   0  0  0  0  0  0  0  0  0  0  0  0
   26.9250    0.2330   -8.5618 S   0  0  2  0  0  6  0  0  0  0  0  0
   27.0392    1.7127   -8.3339 O   0  0  0  0  0  0  0  0  0  0  0  0
   26.4801   -0.3768   -7.2632 O   0  0  0  0  0  0  0  0  0  0  0  0
   25.7134   -0.0782   -9.8004 C   0  0  1  0  0  0  0  0  0  0  0  0
   26.3760   -0.4948  -11.0942 C   0  0  0  0  0  0  0  0  0  0  0  0
   25.2861   -0.4170  -12.1712 C   0  0  0  0  0  0  0  0  0  0  0  0
   24.2808   -1.4971  -11.8242 C   0  0  0  0  0  0  0  0  0  0  0  0
   23.6369   -1.1154  -10.5198 C   0  0  2  0  0  0  0  0  0  0  0  0
   24.6601   -1.0450   -9.3899 C   0  0  0  0  0  0  0  0  0  0  0  0
   22.4999   -1.9002  -10.1799 N   0  0  0  0  0  0  0  0  0  0  0  0
   21.4206   -0.9954   -9.9785 C   0  0  0  0  0  0  0  0  0  0  0  0
   20.1053   -1.1437   -9.5585 C   0  0  0  0  0  0  0  0  0  0  0  0
   19.2555   -0.0657   -9.4509 C   0  0  0  0  0  0  0  0  0  0  0  0
   19.6723    1.2087   -9.7552 C   0  0  0  0  0  0  0  0  0  0  0  0
   18.8119    2.2536   -9.6397 F   0  0  0  0  0  0  0  0  0  0  0  0
   20.9805    1.3617  -10.1737 C   0  0  0  0  0  0  0  0  0  0  0  0
   21.8313    0.2916  -10.2827 C   0  0  0  0  0  0  0  0  0  0  0  0
   23.1593    0.2301  -10.6773 O   0  0  0  0  0  0  0  0  0  0  0  0
  2  1  1  6
  2  3  2  0
  2  4  2  0
  5  2  1  1
  6  5  1  1
  7  6  1  6
  8  7  1  1
  8  9  1  0
 10  9  1  1
  9 11  1  1
 11 12  1  0
 12 13  2  0
 13 14  1  0
 14 15  2  0
 15 16  1  0
 15 17  1  0
 17 18  2  0
 18 19  1  0
 10  5  1  0
 18 12  1  0
  9 19  1  0
M  END
$$$$
