_rank16
     RDKit          3D

 19 21  0  0  0  0  0  0  0  0999 V2000
   20.2322   -3.1657  -11.8766 C   0  0  0  0  0  0  0  0  0  0  0  0
   20.9890   -2.2434  -10.5940 S   0  0  2  0  0  6  0  0  0  0  0  0
   21.3787   -3.1792   -9.4863 O   0  0  0  0  0  0  0  0  0  0  0  0
   19.9703   -1.2956  -10.0282 O   0  0  0  0  0  0  0  0  0  0  0  0
   22.4030   -1.3371  -11.1215 C   0  0  1  0  0  0  0  0  0  0  0  0
   22.1326   -0.6613  -12.4469 C   0  0  0  0  0  0  0  0  0  0  0  0
   23.4970   -0.1905  -12.9671 C   0  0  0  0  0  0  0  0  0  0  0  0
   23.9575    0.8895  -12.0084 C   0  0  0  0  0  0  0  0  0  0  0  0
   24.1972    0.2392  -10.6737 C   0  0  2  0  0  0  0  0  0  0  0  0
   22.9178   -0.3738  -10.1118 C   0  0  0  0  0  0  0  0  0  0  0  0
   24.8645    1.0712   -9.7321 N   0  0  0  0  0  0  0  0  0  0  0  0
   26.0246    0.3649   -9.3082 C   0  0  0  0  0  0  0  0  0  0  0  0
   27.0106    0.6123   -8.3623 C   0  0  0  0  0  0  0  0  0  0  0  0
   28.0490   -0.2677   -8.1541 C   0  0  0  0  0  0  0  0  0  0  0  0
   28.1561   -1.4334   -8.8752 C   0  0  0  0  0  0  0  0  0  0  0  0
   29.1914   -2.2831   -8.6484 F   0  0  0  0  0  0  0  0  0  0  0  0
   27.1771   -1.6843   -9.8180 C   0  0  0  0  0  0  0  0  0  0  0  0
   26.1408   -0.8114  -10.0295 C   0  0  0  0  0  0  0  0  0  0  0  0
   25.0730   -0.8742  -10.9121 O   0  0  0  0  0  0  0  0  0  0  0  0
  2  1  1  6
  2  3  2  0
  2  4  2  0
  5  2  1  1
  6  5  1  1
  7  6  1  6
  8  7  1  1
  8  9  1  0
 10  9  1  1
  9 11  1  1
 11 12  1  0
 12 13  2  0
 13 14  1  0
 14 15  2  0
 15 16  1  0
 15 17  1  0
 17 18  2  0
 18 19  1  0
 10  5  1  0
 18 12  1  0
  9 19  1  0
M  END
$$$$
