_rank7
     RDKit          3D

 19 21  0  0  0  0  0  0  0  0999 V2000
   28.0848   -1.3671   -8.4395 C   0  0  0  0  0  0  0  0  0  0  0  0
   27.0590    0.0528   -8.4421 S   0  0  2  0  0  6  0  0  0  0  0  0
   27.9253    1.2792   -8.4387 O   0  0  0  0  0  0  0  0  0  0  0  0
   26.2713    0.0698   -7.1632 O   0  0  0  0  0  0  0  0  0  0  0  0
   25.9544    0.1182   -9.8112 C   0  0  1  0  0  0  0  0  0  0  0  0
   26.7225    0.3015  -11.1008 C   0  0  0  0  0  0  0  0  0  0  0  0
   25.6807    0.6743  -12.1637 C   0  0  0  0  0  0  0  0  0  0  0  0
   24.8098   -0.5536  -12.3410 C   0  0  0  0  0  0  0  0  0  0  0  0
   24.0645   -0.7710  -11.0530 C   0  0  2  0  0  0  0  0  0  0  0  0
   25.0186   -1.0351   -9.8918 C   0  0  0  0  0  0  0  0  0  0  0  0
   23.0251   -1.7389  -11.1379 N   0  0  0  0  0  0  0  0  0  0  0  0
   21.8295   -1.0975  -10.7099 C   0  0  0  0  0  0  0  0  0  0  0  0
   20.5273   -1.5306  -10.4977 C   0  0  0  0  0  0  0  0  0  0  0  0
   19.5406   -0.6705  -10.0702 C   0  0  0  0  0  0  0  0  0  0  0  0
   19.8013    0.6585   -9.8338 C   0  0  0  0  0  0  0  0  0  0  0  0
   18.8082    1.4841   -9.4125 F   0  0  0  0  0  0  0  0  0  0  0  0
   21.0959    1.0947  -10.0435 C   0  0  0  0  0  0  0  0  0  0  0  0
   22.0825    0.2425  -10.4692 C   0  0  0  0  0  0  0  0  0  0  0  0
   23.4235    0.4747  -10.7356 O   0  0  0  0  0  0  0  0  0  0  0  0
  2  1  1  6
  2  3  2  0
  2  4  2  0
  5  2  1  1
  6  5  1  1
  7  6  1  6
  8  7  1  1
  8  9  1  0
 10  9  1  1
  9 11  1  6
 11 12  1  0
 12 13  2  0
 13 14  1  0
 14 15  2  0
 15 16  1  0
 15 17  1  0
 17 18  2  0
 18 19  1  0
 10  5  1  0
 18 12  1  0
  9 19  1  0
M  END
$$$$
