_rank18
     RDKit          3D

 19 21  0  0  0  0  0  0  0  0999 V2000
   20.6049   -1.4141   -8.6554 C   0  0  0  0  0  0  0  0  0  0  0  0
   20.6209   -1.4397  -10.4068 S   0  0  2  0  0  6  0  0  0  0  0  0
   19.6276   -0.4361  -10.9174 O   0  0  0  0  0  0  0  0  0  0  0  0
   20.1522   -2.7913  -10.8646 O   0  0  0  0  0  0  0  0  0  0  0  0
   22.2040   -1.1032  -11.0993 C   0  0  1  0  0  0  0  0  0  0  0  0
   22.1252   -1.0782  -12.6092 C   0  0  0  0  0  0  0  0  0  0  0  0
   23.5755   -1.1123  -13.1085 C   0  0  0  0  0  0  0  0  0  0  0  0
   24.1943    0.2029  -12.6785 C   0  0  0  0  0  0  0  0  0  0  0  0
   24.2476    0.2092  -11.1755 C   0  0  2  0  0  0  0  0  0  0  0  0
   22.8514    0.1249  -10.5655 C   0  0  0  0  0  0  0  0  0  0  0  0
   25.0221    1.2680  -10.6247 N   0  0  0  0  0  0  0  0  0  0  0  0
   26.0054    0.6675   -9.7900 C   0  0  0  0  0  0  0  0  0  0  0  0
   26.9797    1.1680   -8.9364 C   0  0  0  0  0  0  0  0  0  0  0  0
   27.8194    0.3350   -8.2314 C   0  0  0  0  0  0  0  0  0  0  0  0
   27.7305   -1.0326   -8.3415 C   0  0  0  0  0  0  0  0  0  0  0  0
   28.5723   -1.8300   -7.6338 F   0  0  0  0  0  0  0  0  0  0  0  0
   26.7624   -1.5358   -9.1898 C   0  0  0  0  0  0  0  0  0  0  0  0
   25.9234   -0.7108   -9.8944 C   0  0  0  0  0  0  0  0  0  0  0  0
   24.9019   -1.0081  -10.7839 O   0  0  0  0  0  0  0  0  0  0  0  0
  2  1  1  1
  2  3  2  0
  2  4  2  0
  5  2  1  1
  6  5  1  1
  7  6  1  6
  8  7  1  1
  8  9  1  0
 10  9  1  1
  9 11  1  6
 11 12  1  0
 12 13  2  0
 13 14  1  0
 14 15  2  0
 15 16  1  0
 15 17  1  0
 17 18  2  0
 18 19  1  0
 10  5  1  0
 18 12  1  0
  9 19  1  0
M  END
$$$$
