_rank10
     RDKit          3D

 19 21  0  0  0  0  0  0  0  0999 V2000
   28.4097   -0.7284   -8.8651 C   0  0  0  0  0  0  0  0  0  0  0  0
   26.8362   -0.0714   -8.4638 S   0  0  2  0  0  6  0  0  0  0  0  0
   27.0121    1.3198   -7.9268 O   0  0  0  0  0  0  0  0  0  0  0  0
   26.2472   -0.8970   -7.3558 O   0  0  0  0  0  0  0  0  0  0  0  0
   25.7213   -0.0382   -9.8257 C   0  0  1  0  0  0  0  0  0  0  0  0
   26.4815    0.0807  -11.1275 C   0  0  0  0  0  0  0  0  0  0  0  0
   25.4376    0.4316  -12.1957 C   0  0  0  0  0  0  0  0  0  0  0  0
   24.5428   -0.7857  -12.3184 C   0  0  0  0  0  0  0  0  0  0  0  0
   23.8046   -0.9391  -11.0171 C   0  0  2  0  0  0  0  0  0  0  0  0
   24.7636   -1.1760   -9.8540 C   0  0  0  0  0  0  0  0  0  0  0  0
   22.7469   -1.8899  -11.0562 N   0  0  0  0  0  0  0  0  0  0  0  0
   21.5670   -1.2101  -10.6439 C   0  0  0  0  0  0  0  0  0  0  0  0
   20.2589   -1.6101  -10.4048 C   0  0  0  0  0  0  0  0  0  0  0  0
   19.2920   -0.7158  -10.0033 C   0  0  0  0  0  0  0  0  0  0  0  0
   19.5792    0.6163   -9.8206 C   0  0  0  0  0  0  0  0  0  0  0  0
   18.6052    1.4760   -9.4239 F   0  0  0  0  0  0  0  0  0  0  0  0
   20.8798    1.0196  -10.0573 C   0  0  0  0  0  0  0  0  0  0  0  0
   21.8468    0.1332  -10.4574 C   0  0  0  0  0  0  0  0  0  0  0  0
   23.1895    0.3297  -10.7432 O   0  0  0  0  0  0  0  0  0  0  0  0
  2  1  1  6
  2  3  2  0
  2  4  2  0
  5  2  1  1
  6  5  1  1
  7  6  1  6
  8  7  1  1
  8  9  1  0
 10  9  1  1
  9 11  1  6
 11 12  1  0
 12 13  2  0
 13 14  1  0
 14 15  2  0
 15 16  1  0
 15 17  1  0
 17 18  2  0
 18 19  1  0
 10  5  1  0
 18 12  1  0
  9 19  1  0
M  END
$$$$
