_rank15
     RDKit          3D

 19 21  0  0  0  0  0  0  0  0999 V2000
   19.7522    1.8305   -9.9849 C   0  0  0  0  0  0  0  0  0  0  0  0
   19.8053    0.1173   -9.6238 S   0  0  2  0  0  6  0  0  0  0  0  0
   18.5560   -0.5297  -10.1484 O   0  0  0  0  0  0  0  0  0  0  0  0
   19.7927   -0.0525   -8.1314 O   0  0  0  0  0  0  0  0  0  0  0  0
   21.2143   -0.6980  -10.2941 C   0  0  1  0  0  0  0  0  0  0  0  0
   20.7907   -1.7330  -11.3119 C   0  0  0  0  0  0  0  0  0  0  0  0
   22.0317   -2.5945  -11.5798 C   0  0  0  0  0  0  0  0  0  0  0  0
   23.0295   -1.6839  -12.2674 C   0  0  0  0  0  0  0  0  0  0  0  0
   23.4348   -0.6259  -11.2783 C   0  0  2  0  0  0  0  0  0  0  0  0
   22.2427    0.2235  -10.8471 C   0  0  0  0  0  0  0  0  0  0  0  0
   24.5465    0.1607  -11.6899 N   0  0  0  0  0  0  0  0  0  0  0  0
   25.5263    0.0574  -10.6634 C   0  0  0  0  0  0  0  0  0  0  0  0
   26.7644    0.6492  -10.4509 C   0  0  0  0  0  0  0  0  0  0  0  0
   27.5229    0.3581   -9.3392 C   0  0  0  0  0  0  0  0  0  0  0  0
   27.0872   -0.5335   -8.3877 C   0  0  0  0  0  0  0  0  0  0  0  0
   27.8567   -0.8015   -7.3008 F   0  0  0  0  0  0  0  0  0  0  0  0
   25.8555   -1.1253   -8.5945 C   0  0  0  0  0  0  0  0  0  0  0  0
   25.0958   -0.8392   -9.6998 C   0  0  0  0  0  0  0  0  0  0  0  0
   23.8532   -1.3155  -10.0897 O   0  0  0  0  0  0  0  0  0  0  0  0
  2  1  1  1
  2  3  2  0
  2  4  2  0
  5  2  1  6
  6  5  1  1
  7  6  1  6
  8  7  1  1
  8  9  1  0
 10  9  1  1
  9 11  1  6
 11 12  1  0
 12 13  2  0
 13 14  1  0
 14 15  2  0
 15 16  1  0
 15 17  1  0
 17 18  2  0
 18 19  1  0
 10  5  1  0
 18 12  1  0
  9 19  1  0
M  END
$$$$
