_rank20
     RDKit          3D

 19 21  0  0  0  0  0  0  0  0999 V2000
   20.4058   -0.2577   -8.2028 C   0  0  0  0  0  0  0  0  0  0  0  0
   20.2582   -0.8296   -9.8519 S   0  0  2  0  0  6  0  0  0  0  0  0
   19.3810    0.1175  -10.6188 O   0  0  0  0  0  0  0  0  0  0  0  0
   19.5558   -2.1572   -9.8313 O   0  0  0  0  0  0  0  0  0  0  0  0
   21.8037   -0.9974  -10.6777 C   0  0  1  0  0  0  0  0  0  0  0  0
   21.5970   -1.5067  -12.0864 C   0  0  0  0  0  0  0  0  0  0  0  0
   22.9834   -1.9273  -12.5912 C   0  0  0  0  0  0  0  0  0  0  0  0
   23.7917   -0.6496  -12.6996 C   0  0  0  0  0  0  0  0  0  0  0  0
   23.9764   -0.1102  -11.3079 C   0  0  2  0  0  0  0  0  0  0  0  0
   22.6389    0.2333  -10.6586 C   0  0  0  0  0  0  0  0  0  0  0  0
   24.9182    0.9521  -11.2154 N   0  0  0  0  0  0  0  0  0  0  0  0
   25.8909    0.5573  -10.2551 C   0  0  0  0  0  0  0  0  0  0  0  0
   26.9892    1.1853   -9.6828 C   0  0  0  0  0  0  0  0  0  0  0  0
   27.7806    0.5503   -8.7519 C   0  0  0  0  0  0  0  0  0  0  0  0
   27.5179   -0.7370   -8.3466 C   0  0  0  0  0  0  0  0  0  0  0  0
   28.3157   -1.3386   -7.4264 F   0  0  0  0  0  0  0  0  0  0  0  0
   26.4257   -1.3665   -8.9132 C   0  0  0  0  0  0  0  0  0  0  0  0
   25.6342   -0.7388   -9.8408 C   0  0  0  0  0  0  0  0  0  0  0  0
   24.5105   -1.1856  -10.5196 O   0  0  0  0  0  0  0  0  0  0  0  0
  2  1  1  1
  2  3  2  0
  2  4  2  0
  5  2  1  6
  6  5  1  1
  7  6  1  6
  8  7  1  1
  8  9  1  0
 10  9  1  1
  9 11  1  6
 11 12  1  0
 12 13  2  0
 13 14  1  0
 14 15  2  0
 15 16  1  0
 15 17  1  0
 17 18  2  0
 18 19  1  0
 10  5  1  0
 18 12  1  0
  9 19  1  0
M  END
$$$$
