_rank6
     RDKit          3D

 19 21  0  0  0  0  0  0  0  0999 V2000
   28.8143   -0.8648   -8.9905 C   0  0  0  0  0  0  0  0  0  0  0  0
   27.1612   -0.7716   -8.4188 S   0  0  2  0  0  6  0  0  0  0  0  0
   27.1237    0.0652   -7.1726 O   0  0  0  0  0  0  0  0  0  0  0  0
   26.7156   -2.1529   -8.0320 O   0  0  0  0  0  0  0  0  0  0  0  0
   26.0443   -0.1068   -9.6060 C   0  0  1  0  0  0  0  0  0  0  0  0
   26.7385    0.9285  -10.4621 C   0  0  0  0  0  0  0  0  0  0  0  0
   25.6258    1.6672  -11.2171 C   0  0  0  0  0  0  0  0  0  0  0  0
   25.0187    0.6499  -12.1627 C   0  0  0  0  0  0  0  0  0  0  0  0
   24.3536   -0.4075  -11.3252 C   0  0  2  0  0  0  0  0  0  0  0  0
   25.3600   -1.1333  -10.4370 C   0  0  0  0  0  0  0  0  0  0  0  0
   23.5304   -1.3027  -12.0636 N   0  0  0  0  0  0  0  0  0  0  0  0
   22.2368   -1.2539  -11.4734 C   0  0  0  0  0  0  0  0  0  0  0  0
   21.0527   -1.9463  -11.6902 C   0  0  0  0  0  0  0  0  0  0  0  0
   19.9194   -1.6882  -10.9519 C   0  0  0  0  0  0  0  0  0  0  0  0
   19.9096   -0.7312   -9.9648 C   0  0  0  0  0  0  0  0  0  0  0  0
   18.7769   -0.4978   -9.2522 F   0  0  0  0  0  0  0  0  0  0  0  0
   21.0857   -0.0392   -9.7451 C   0  0  0  0  0  0  0  0  0  0  0  0
   22.2173   -0.2921  -10.4774 C   0  0  0  0  0  0  0  0  0  0  0  0
   23.4791    0.2800  -10.4165 O   0  0  0  0  0  0  0  0  0  0  0  0
  2  1  1  6
  2  3  2  0
  2  4  2  0
  5  2  1  1
  6  5  1  1
  7  6  1  6
  8  7  1  1
  8  9  1  0
 10  9  1  1
  9 11  1  6
 11 12  1  0
 12 13  2  0
 13 14  1  0
 14 15  2  0
 15 16  1  0
 15 17  1  0
 17 18  2  0
 18 19  1  0
 10  5  1  0
 18 12  1  0
  9 19  1  0
M  END
$$$$
