_rank15
     RDKit          3D

 18 19  0  0  0  0  0  0  0  0999 V2000
   19.3227   -1.7051   -9.7223 C   0  0  0  0  0  0  0  0  0  0  0  0
   20.1781   -2.1413  -10.8387 N   0  0  0  0  0  0  0  0  0  0  0  0
   20.9373   -0.9704  -11.2322 C   0  0  2  0  0  0  0  0  0  0  0  0
   21.5151   -1.2412  -12.5909 C   0  0  0  0  0  0  0  0  0  0  0  0
   22.6577   -0.2381  -12.7656 C   0  0  0  0  0  0  0  0  0  0  0  0
   23.7842   -0.7742  -11.8922 C   0  0  0  0  0  0  0  0  0  0  0  0
   23.3362   -0.9458  -10.4631 C   0  0  1  0  0  0  0  0  0  0  0  0
   24.1612   -0.1318   -9.6794 O   0  0  0  0  0  0  0  0  0  0  0  0
   25.4108   -0.3592   -9.2105 C   0  0  0  0  0  0  0  0  0  0  0  0
   25.6738   -1.5587   -8.5354 C   0  0  0  0  0  0  0  0  0  0  0  0
   26.9188   -1.8410   -8.0403 C   0  0  0  0  0  0  0  0  0  0  0  0
   27.2026   -2.9909   -7.3838 F   0  0  0  0  0  0  0  0  0  0  0  0
   27.9454   -0.9214   -8.2087 C   0  0  0  0  0  0  0  0  0  0  0  0
   27.7247    0.2601   -8.8628 C   0  0  0  0  0  0  0  0  0  0  0  0
   28.8112    1.1956   -9.0217 C   0  0  0  0  0  0  0  0  0  0  0  0
   29.6942    1.9501   -9.1705 N   0  0  0  0  0  0  0  0  0  0  0  0
   26.4551    0.5128   -9.3501 C   0  0  0  0  0  0  0  0  0  0  0  0
   21.9171   -0.5126  -10.2310 C   0  0  0  0  0  0  0  0  0  0  0  0
  1  2  1  1
  3  2  1  1
  3  4  1  0
  4  5  1  6
  5  6  1  6
  6  7  1  1
  7  8  1  1
  8  9  1  0
  9 10  2  0
 10 11  1  0
 11 12  1  0
 11 13  2  0
 13 14  1  0
 14 15  1  0
 15 16  3  0
 14 17  2  0
 18  7  1  6
 18  3  1  0
 17  9  1  0
M  END
$$$$
