_rank10
     RDKit          3D

 18 19  0  0  0  0  0  0  0  0999 V2000
   18.3599   -2.3627   -9.2041 C   0  0  0  0  0  0  0  0  0  0  0  0
   19.6965   -2.6525   -9.7498 N   0  0  0  0  0  0  0  0  0  0  0  0
   20.0777   -1.4729  -10.5019 C   0  0  2  0  0  0  0  0  0  0  0  0
   20.1236   -1.8563  -11.9524 C   0  0  0  0  0  0  0  0  0  0  0  0
   20.9618   -0.7777  -12.6425 C   0  0  0  0  0  0  0  0  0  0  0  0
   22.3991   -1.0877  -12.2458 C   0  0  0  0  0  0  0  0  0  0  0  0
   22.5599   -1.1195  -10.7472 C   0  0  1  0  0  0  0  0  0  0  0  0
   23.5007   -0.1371  -10.4197 O   0  0  0  0  0  0  0  0  0  0  0  0
   24.8533   -0.1904  -10.4406 C   0  0  0  0  0  0  0  0  0  0  0  0
   25.5144   -0.1495  -11.6755 C   0  0  0  0  0  0  0  0  0  0  0  0
   26.8804   -0.2002  -11.7560 C   0  0  0  0  0  0  0  0  0  0  0  0
   27.5467   -0.1629  -12.9343 F   0  0  0  0  0  0  0  0  0  0  0  0
   27.6302   -0.2940  -10.5911 C   0  0  0  0  0  0  0  0  0  0  0  0
   27.0182   -0.3361   -9.3678 C   0  0  0  0  0  0  0  0  0  0  0  0
   27.8241   -0.4340   -8.1754 C   0  0  0  0  0  0  0  0  0  0  0  0
   28.4695   -0.4966   -7.2004 N   0  0  0  0  0  0  0  0  0  0  0  0
   25.6367   -0.2829   -9.3234 C   0  0  0  0  0  0  0  0  0  0  0  0
   21.2923   -0.7997  -10.0084 C   0  0  0  0  0  0  0  0  0  0  0  0
  1  2  1  1
  3  2  1  1
  3  4  1  0
  4  5  1  6
  5  6  1  6
  6  7  1  1
  7  8  1  6
  8  9  1  0
  9 10  2  0
 10 11  1  0
 11 12  1  0
 11 13  2  0
 13 14  1  0
 14 15  1  0
 15 16  3  0
 14 17  2  0
 18  7  1  6
 18  3  1  0
 17  9  1  0
M  END
$$$$
