_rank17
     RDKit          3D

 18 19  0  0  0  0  0  0  0  0999 V2000
   20.5105   -2.0491   -8.7639 C   0  0  0  0  0  0  0  0  0  0  0  0
   19.9480   -0.8170   -9.3417 N   0  0  0  0  0  0  0  0  0  0  0  0
   20.9758   -0.2895  -10.2179 C   0  0  2  0  0  0  0  0  0  0  0  0
   20.4284   -0.3003  -11.6155 C   0  0  0  0  0  0  0  0  0  0  0  0
   21.6440   -0.2034  -12.5403 C   0  0  0  0  0  0  0  0  0  0  0  0
   22.2773   -1.5878  -12.4981 C   0  0  0  0  0  0  0  0  0  0  0  0
   22.6156   -1.9935  -11.0863 C   0  0  1  0  0  0  0  0  0  0  0  0
   23.9971   -2.2110  -11.0472 O   0  0  0  0  0  0  0  0  0  0  0  0
   25.0033   -1.3485  -10.7709 C   0  0  0  0  0  0  0  0  0  0  0  0
   25.4818   -0.5155  -11.7912 C   0  0  0  0  0  0  0  0  0  0  0  0
   26.4973    0.3754  -11.5680 C   0  0  0  0  0  0  0  0  0  0  0  0
   26.9804    1.1924  -12.5339 F   0  0  0  0  0  0  0  0  0  0  0  0
   27.0681    0.4582  -10.3050 C   0  0  0  0  0  0  0  0  0  0  0  0
   26.6261   -0.3397   -9.2849 C   0  0  0  0  0  0  0  0  0  0  0  0
   27.2391   -0.2309   -7.9836 C   0  0  0  0  0  0  0  0  0  0  0  0
   27.7546   -0.1385   -6.9363 N   0  0  0  0  0  0  0  0  0  0  0  0
   25.5985   -1.2284   -9.5454 C   0  0  0  0  0  0  0  0  0  0  0  0
   22.2930   -0.9343  -10.0719 C   0  0  0  0  0  0  0  0  0  0  0  0
  1  2  1  1
  3  2  1  1
  3  4  1  0
  4  5  1  6
  5  6  1  6
  6  7  1  1
  7  8  1  6
  8  9  1  0
  9 10  2  0
 10 11  1  0
 11 12  1  0
 11 13  2  0
 13 14  1  0
 14 15  1  0
 15 16  3  0
 14 17  2  0
 18  7  1  6
 18  3  1  0
 17  9  1  0
M  END
$$$$
