_rank18
     RDKit          3D

 18 19  0  0  0  0  0  0  0  0999 V2000
   19.8377   -3.9079  -11.3445 C   0  0  0  0  0  0  0  0  0  0  0  0
   19.8987   -2.5051  -11.7882 N   0  0  0  0  0  0  0  0  0  0  0  0
   20.0088   -1.7149  -10.5775 C   0  0  2  0  0  0  0  0  0  0  0  0
   18.9791   -0.6254  -10.6529 C   0  0  0  0  0  0  0  0  0  0  0  0
   19.4201    0.4359   -9.6423 C   0  0  0  0  0  0  0  0  0  0  0  0
   20.5950    1.1419  -10.3060 C   0  0  0  0  0  0  0  0  0  0  0  0
   21.6817    0.1660  -10.6792 C   0  0  1  0  0  0  0  0  0  0  0  0
   22.8346    0.5611   -9.9922 O   0  0  0  0  0  0  0  0  0  0  0  0
   23.9378   -0.1529   -9.6667 C   0  0  0  0  0  0  0  0  0  0  0  0
   23.8503   -1.5506   -9.6162 C   0  0  0  0  0  0  0  0  0  0  0  0
   24.9339   -2.3225   -9.2927 C   0  0  0  0  0  0  0  0  0  0  0  0
   24.8796   -3.6744   -9.2357 F   0  0  0  0  0  0  0  0  0  0  0  0
   26.1476   -1.7109   -9.0079 C   0  0  0  0  0  0  0  0  0  0  0  0
   26.2696   -0.3485   -9.0476 C   0  0  0  0  0  0  0  0  0  0  0  0
   27.5435    0.2578   -8.7465 C   0  0  0  0  0  0  0  0  0  0  0  0
   28.5862    0.7382   -8.5162 N   0  0  0  0  0  0  0  0  0  0  0  0
   25.1547    0.4006   -9.3781 C   0  0  0  0  0  0  0  0  0  0  0  0
   21.3734   -1.2471  -10.2753 C   0  0  0  0  0  0  0  0  0  0  0  0
  1  2  1  1
  3  2  1  6
  3  4  1  0
  4  5  1  6
  5  6  1  6
  6  7  1  1
  7  8  1  1
  8  9  1  0
  9 10  2  0
 10 11  1  0
 11 12  1  0
 11 13  2  0
 13 14  1  0
 14 15  1  0
 15 16  3  0
 14 17  2  0
 18  7  1  6
 18  3  1  0
 17  9  1  0
M  END
$$$$
