_rank13
     RDKit          3D

 18 19  0  0  0  0  0  0  0  0999 V2000
   19.0685    1.0789   -8.5275 C   0  0  0  0  0  0  0  0  0  0  0  0
   20.2293    0.1948   -8.7255 N   0  0  0  0  0  0  0  0  0  0  0  0
   20.5395    0.2651  -10.1401 C   0  0  2  0  0  0  0  0  0  0  0  0
   19.4960   -0.5273  -10.8723 C   0  0  0  0  0  0  0  0  0  0  0  0
   20.0923   -0.8307  -12.2488 C   0  0  0  0  0  0  0  0  0  0  0  0
   21.1203   -1.9254  -11.9956 C   0  0  0  0  0  0  0  0  0  0  0  0
   22.1388   -1.4953  -10.9709 C   0  0  1  0  0  0  0  0  0  0  0  0
   23.3888   -1.5421  -11.5976 O   0  0  0  0  0  0  0  0  0  0  0  0
   24.5815   -1.0467  -11.1916 C   0  0  0  0  0  0  0  0  0  0  0  0
   25.6302   -0.9602  -12.1172 C   0  0  0  0  0  0  0  0  0  0  0  0
   26.8572   -0.4677  -11.7616 C   0  0  0  0  0  0  0  0  0  0  0  0
   27.8890   -0.3723  -12.6335 F   0  0  0  0  0  0  0  0  0  0  0  0
   27.0712   -0.0437  -10.4568 C   0  0  0  0  0  0  0  0  0  0  0  0
   26.0700   -0.1135   -9.5266 C   0  0  0  0  0  0  0  0  0  0  0  0
   26.3227    0.3343   -8.1788 C   0  0  0  0  0  0  0  0  0  0  0  0
   26.5101    0.6897   -7.0789 N   0  0  0  0  0  0  0  0  0  0  0  0
   24.8429   -0.6164   -9.9200 C   0  0  0  0  0  0  0  0  0  0  0  0
   21.9286   -0.0919  -10.4795 C   0  0  0  0  0  0  0  0  0  0  0  0
  1  2  1  1
  3  2  1  1
  3  4  1  0
  4  5  1  6
  5  6  1  6
  6  7  1  1
  7  8  1  6
  8  9  1  0
  9 10  2  0
 10 11  1  0
 11 12  1  0
 11 13  2  0
 13 14  1  0
 14 15  1  0
 15 16  3  0
 14 17  2  0
 18  7  1  6
 18  3  1  0
 17  9  1  0
M  END
$$$$
