_rank12
     RDKit          3D

 18 19  0  0  0  0  0  0  0  0999 V2000
   20.5349   -4.0061  -10.7646 C   0  0  0  0  0  0  0  0  0  0  0  0
   19.9254   -2.8438  -11.4323 N   0  0  0  0  0  0  0  0  0  0  0  0
   20.0801   -1.7357  -10.5101 C   0  0  2  0  0  0  0  0  0  0  0  0
   19.4538   -0.5280  -11.1446 C   0  0  0  0  0  0  0  0  0  0  0  0
   20.0329    0.6797  -10.4040 C   0  0  0  0  0  0  0  0  0  0  0  0
   21.4547    0.8160  -10.9324 C   0  0  0  0  0  0  0  0  0  0  0  0
   22.2387   -0.4559  -10.7320 C   0  0  1  0  0  0  0  0  0  0  0  0
   23.3356   -0.1330   -9.9258 O   0  0  0  0  0  0  0  0  0  0  0  0
   24.6593   -0.3010  -10.1545 C   0  0  0  0  0  0  0  0  0  0  0  0
   25.1473   -0.1444  -11.4588 C   0  0  0  0  0  0  0  0  0  0  0  0
   26.4763   -0.3025  -11.7476 C   0  0  0  0  0  0  0  0  0  0  0  0
   26.9767   -0.1579  -12.9976 F   0  0  0  0  0  0  0  0  0  0  0  0
   27.3629   -0.6250  -10.7288 C   0  0  0  0  0  0  0  0  0  0  0  0
   26.9217   -0.7856   -9.4435 C   0  0  0  0  0  0  0  0  0  0  0  0
   27.8669   -1.1210   -8.4066 C   0  0  0  0  0  0  0  0  0  0  0  0
   28.6493   -1.3908   -7.5783 N   0  0  0  0  0  0  0  0  0  0  0  0
   25.5727   -0.6185   -9.1873 C   0  0  0  0  0  0  0  0  0  0  0  0
   21.4578   -1.5288  -10.0292 C   0  0  0  0  0  0  0  0  0  0  0  0
  1  2  1  1
  3  2  1  6
  3  4  1  0
  4  5  1  6
  5  6  1  6
  6  7  1  1
  7  8  1  1
  8  9  1  0
  9 10  2  0
 10 11  1  0
 11 12  1  0
 11 13  2  0
 13 14  1  0
 14 15  1  0
 15 16  3  0
 14 17  2  0
 18  7  1  6
 18  3  1  0
 17  9  1  0
M  END
$$$$
