_rank5
     RDKit          3D

 18 19  0  0  0  0  0  0  0  0999 V2000
   18.9104   -3.5516  -11.8937 C   0  0  0  0  0  0  0  0  0  0  0  0
   19.9519   -2.5421  -12.1483 N   0  0  0  0  0  0  0  0  0  0  0  0
   20.0429   -1.7569  -10.9328 C   0  0  2  0  0  0  0  0  0  0  0  0
   19.4072   -0.4248  -11.2059 C   0  0  0  0  0  0  0  0  0  0  0  0
   19.9260    0.5161  -10.1160 C   0  0  0  0  0  0  0  0  0  0  0  0
   21.3618    0.8253  -10.5189 C   0  0  0  0  0  0  0  0  0  0  0  0
   22.1724   -0.4363  -10.6722 C   0  0  1  0  0  0  0  0  0  0  0  0
   23.2302   -0.3516   -9.7605 O   0  0  0  0  0  0  0  0  0  0  0  0
   24.5663   -0.3614   -9.9788 C   0  0  0  0  0  0  0  0  0  0  0  0
   25.0396   -0.6029  -11.2756 C   0  0  0  0  0  0  0  0  0  0  0  0
   26.3801   -0.6243  -11.5537 C   0  0  0  0  0  0  0  0  0  0  0  0
   26.8669   -0.8552  -12.7961 F   0  0  0  0  0  0  0  0  0  0  0  0
   27.2934   -0.4024  -10.5316 C   0  0  0  0  0  0  0  0  0  0  0  0
   26.8670   -0.1634   -9.2535 C   0  0  0  0  0  0  0  0  0  0  0  0
   27.8399    0.0632   -8.2128 C   0  0  0  0  0  0  0  0  0  0  0  0
   28.6342    0.2651   -7.3764 N   0  0  0  0  0  0  0  0  0  0  0  0
   25.5058   -0.1488   -9.0080 C   0  0  0  0  0  0  0  0  0  0  0  0
   21.3961   -1.6818  -10.3538 C   0  0  0  0  0  0  0  0  0  0  0  0
  1  2  1  1
  3  2  1  6
  3  4  1  0
  4  5  1  6
  5  6  1  6
  6  7  1  1
  7  8  1  1
  8  9  1  0
  9 10  2  0
 10 11  1  0
 11 12  1  0
 11 13  2  0
 13 14  1  0
 14 15  1  0
 15 16  3  0
 14 17  2  0
 18  7  1  6
 18  3  1  0
 17  9  1  0
M  END
$$$$
