_rank6
     RDKit          3D

 18 19  0  0  0  0  0  0  0  0999 V2000
   18.0009    0.5146   -9.1648 C   0  0  0  0  0  0  0  0  0  0  0  0
   19.3735    0.0151   -8.9781 N   0  0  0  0  0  0  0  0  0  0  0  0
   19.8784   -0.2528  -10.3106 C   0  0  2  0  0  0  0  0  0  0  0  0
   19.7494   -1.7281  -10.5553 C   0  0  0  0  0  0  0  0  0  0  0  0
   20.6929   -2.0419  -11.7188 C   0  0  0  0  0  0  0  0  0  0  0  0
   22.0887   -1.9999  -11.1112 C   0  0  0  0  0  0  0  0  0  0  0  0
   22.3585   -0.6735  -10.4476 C   0  0  1  0  0  0  0  0  0  0  0  0
   23.4667   -0.1152  -11.0938 O   0  0  0  0  0  0  0  0  0  0  0  0
   24.7869   -0.2553  -10.8285 C   0  0  0  0  0  0  0  0  0  0  0  0
   25.6499   -0.6367  -11.8645 C   0  0  0  0  0  0  0  0  0  0  0  0
   26.9936   -0.7935  -11.6530 C   0  0  0  0  0  0  0  0  0  0  0  0
   27.8516   -1.1613  -12.6340 F   0  0  0  0  0  0  0  0  0  0  0  0
   27.5162   -0.5705  -10.3861 C   0  0  0  0  0  0  0  0  0  0  0  0
   26.7031   -0.1968   -9.3508 C   0  0  0  0  0  0  0  0  0  0  0  0
   27.2754    0.0272   -8.0457 C   0  0  0  0  0  0  0  0  0  0  0  0
   27.7328    0.1910   -6.9803 N   0  0  0  0  0  0  0  0  0  0  0  0
   25.3506   -0.0478   -9.5998 C   0  0  0  0  0  0  0  0  0  0  0  0
   21.2197    0.2966  -10.5777 C   0  0  0  0  0  0  0  0  0  0  0  0
  1  2  1  1
  3  2  1  1
  3  4  1  0
  4  5  1  6
  5  6  1  6
  6  7  1  1
  7  8  1  6
  8  9  1  0
  9 10  2  0
 10 11  1  0
 11 12  1  0
 11 13  2  0
 13 14  1  0
 14 15  1  0
 15 16  3  0
 14 17  2  0
 18  7  1  6
 18  3  1  0
 17  9  1  0
M  END
$$$$
