_rank19
     RDKit          3D

 18 19  0  0  0  0  0  0  0  0999 V2000
   21.8218   -0.5297   -7.5803 C   0  0  0  0  0  0  0  0  0  0  0  0
   20.8522   -1.3031   -8.3741 N   0  0  0  0  0  0  0  0  0  0  0  0
   20.8256   -0.6757   -9.6810 C   0  0  2  0  0  0  0  0  0  0  0  0
   19.8889   -1.4690  -10.5449 C   0  0  0  0  0  0  0  0  0  0  0  0
   20.2359   -1.0961  -11.9881 C   0  0  0  0  0  0  0  0  0  0  0  0
   21.5397   -1.8282  -12.2772 C   0  0  0  0  0  0  0  0  0  0  0  0
   22.6079   -1.4615  -11.2787 C   0  0  1  0  0  0  0  0  0  0  0  0
   23.6650   -0.9010  -12.0037 O   0  0  0  0  0  0  0  0  0  0  0  0
   24.9491   -0.6814  -11.6351 C   0  0  0  0  0  0  0  0  0  0  0  0
   25.8624   -0.2284  -12.5966 C   0  0  0  0  0  0  0  0  0  0  0  0
   27.1729    0.0101  -12.2797 C   0  0  0  0  0  0  0  0  0  0  0  0
   28.0781    0.4477  -13.1869 F   0  0  0  0  0  0  0  0  0  0  0  0
   27.6103   -0.2004  -10.9788 C   0  0  0  0  0  0  0  0  0  0  0  0
   26.7462   -0.6423  -10.0141 C   0  0  0  0  0  0  0  0  0  0  0  0
   27.2303   -0.8520   -8.6715 C   0  0  0  0  0  0  0  0  0  0  0  0
   27.6311   -1.0401   -7.5875 N   0  0  0  0  0  0  0  0  0  0  0  0
   25.4293   -0.8731  -10.3690 C   0  0  0  0  0  0  0  0  0  0  0  0
   22.1546   -0.4419  -10.2737 C   0  0  0  0  0  0  0  0  0  0  0  0
  1  2  1  1
  3  2  1  1
  3  4  1  0
  4  5  1  6
  5  6  1  6
  6  7  1  1
  7  8  1  6
  8  9  1  0
  9 10  2  0
 10 11  1  0
 11 12  1  0
 11 13  2  0
 13 14  1  0
 14 15  1  0
 15 16  3  0
 14 17  2  0
 18  7  1  6
 18  3  1  0
 17  9  1  0
M  END
$$$$
