_rank14
     RDKit          3D

 18 19  0  0  0  0  0  0  0  0999 V2000
   19.4452   -3.0116   -8.2418 C   0  0  0  0  0  0  0  0  0  0  0  0
   20.0648   -3.0300   -9.5775 N   0  0  0  0  0  0  0  0  0  0  0  0
   20.1808   -1.6406   -9.9756 C   0  0  2  0  0  0  0  0  0  0  0  0
   19.7214   -1.5383  -11.4009 C   0  0  0  0  0  0  0  0  0  0  0  0
   20.2867   -0.2171  -11.9275 C   0  0  0  0  0  0  0  0  0  0  0  0
   21.7686   -0.4884  -12.1505 C   0  0  0  0  0  0  0  0  0  0  0  0
   22.4330   -0.9765  -10.8884 C   0  0  1  0  0  0  0  0  0  0  0  0
   23.4422   -0.0577  -10.5805 O   0  0  0  0  0  0  0  0  0  0  0  0
   24.7564   -0.2647  -10.3296 C   0  0  0  0  0  0  0  0  0  0  0  0
   25.5516   -0.8533  -11.3221 C   0  0  0  0  0  0  0  0  0  0  0  0
   26.8861   -1.0861  -11.1227 C   0  0  0  0  0  0  0  0  0  0  0  0
   27.6792   -1.6532  -12.0625 F   0  0  0  0  0  0  0  0  0  0  0  0
   27.4678   -0.7326   -9.9125 C   0  0  0  0  0  0  0  0  0  0  0  0
   26.7217   -0.1557   -8.9209 C   0  0  0  0  0  0  0  0  0  0  0  0
   27.3543    0.2001   -7.6742 C   0  0  0  0  0  0  0  0  0  0  0  0
   27.8727    0.5071   -6.6702 N   0  0  0  0  0  0  0  0  0  0  0  0
   25.3766    0.0649   -9.1561 C   0  0  0  0  0  0  0  0  0  0  0  0
   21.5000   -1.0380   -9.7133 C   0  0  0  0  0  0  0  0  0  0  0  0
  1  2  1  1
  3  2  1  6
  3  4  1  0
  4  5  1  6
  5  6  1  6
  6  7  1  1
  7  8  1  1
  8  9  1  0
  9 10  2  0
 10 11  1  0
 11 12  1  0
 11 13  2  0
 13 14  1  0
 14 15  1  0
 15 16  3  0
 14 17  2  0
 18  7  1  6
 18  3  1  0
 17  9  1  0
M  END
$$$$
