_rank4
     RDKit          3D

 18 19  0  0  0  0  0  0  0  0999 V2000
   17.9835    1.4298  -10.0479 C   0  0  0  0  0  0  0  0  0  0  0  0
   19.2944    0.9477   -9.5814 N   0  0  0  0  0  0  0  0  0  0  0  0
   19.7418   -0.0023  -10.5813 C   0  0  2  0  0  0  0  0  0  0  0  0
   19.5794   -1.3780  -10.0033 C   0  0  0  0  0  0  0  0  0  0  0  0
   20.4709   -2.2926  -10.8465 C   0  0  0  0  0  0  0  0  0  0  0  0
   21.8901   -1.9837  -10.3887 C   0  0  0  0  0  0  0  0  0  0  0  0
   22.2074   -0.5174  -10.5363 C   0  0  1  0  0  0  0  0  0  0  0  0
   23.2980   -0.4246  -11.4077 O   0  0  0  0  0  0  0  0  0  0  0  0
   24.6156   -0.2746  -11.1350 C   0  0  0  0  0  0  0  0  0  0  0  0
   25.5251   -0.2100  -12.1992 C   0  0  0  0  0  0  0  0  0  0  0  0
   26.8685   -0.0590  -11.9818 C   0  0  0  0  0  0  0  0  0  0  0  0
   27.7708    0.0062  -12.9895 F   0  0  0  0  0  0  0  0  0  0  0  0
   27.3439    0.0326  -10.6804 C   0  0  0  0  0  0  0  0  0  0  0  0
   26.4846   -0.0265   -9.6171 C   0  0  0  0  0  0  0  0  0  0  0  0
   27.0085    0.0711   -8.2765 C   0  0  0  0  0  0  0  0  0  0  0  0
   27.4332    0.1707   -7.1899 N   0  0  0  0  0  0  0  0  0  0  0  0
   25.1338   -0.1796   -9.8729 C   0  0  0  0  0  0  0  0  0  0  0  0
   21.0801    0.2756  -11.1325 C   0  0  0  0  0  0  0  0  0  0  0  0
  1  2  1  1
  3  2  1  1
  3  4  1  0
  4  5  1  6
  5  6  1  6
  6  7  1  1
  7  8  1  6
  8  9  1  0
  9 10  2  0
 10 11  1  0
 11 12  1  0
 11 13  2  0
 13 14  1  0
 14 15  1  0
 15 16  3  0
 14 17  2  0
 18  7  1  6
 18  3  1  0
 17  9  1  0
M  END
$$$$
