_rank8
     RDKit          3D

 18 19  0  0  0  0  0  0  0  0999 V2000
   19.3590   -3.5277  -11.4320 C   0  0  0  0  0  0  0  0  0  0  0  0
   19.5378   -2.1326  -11.8682 N   0  0  0  0  0  0  0  0  0  0  0  0
   19.8709   -1.3866  -10.6703 C   0  0  2  0  0  0  0  0  0  0  0  0
   19.5902    0.0619  -10.9466 C   0  0  0  0  0  0  0  0  0  0  0  0
   20.3720    0.8469   -9.8908 C   0  0  0  0  0  0  0  0  0  0  0  0
   21.8238    0.7719  -10.3449 C   0  0  0  0  0  0  0  0  0  0  0  0
   22.2764   -0.6574  -10.5017 C   0  0  1  0  0  0  0  0  0  0  0  0
   23.3521   -0.8401   -9.6260 O   0  0  0  0  0  0  0  0  0  0  0  0
   24.6833   -0.7587   -9.8586 C   0  0  0  0  0  0  0  0  0  0  0  0
   25.1593   -0.9800  -11.1580 C   0  0  0  0  0  0  0  0  0  0  0  0
   26.4952   -0.9105  -11.4503 C   0  0  0  0  0  0  0  0  0  0  0  0
   26.9844   -1.1198  -12.6956 F   0  0  0  0  0  0  0  0  0  0  0  0
   27.4009   -0.6146  -10.4403 C   0  0  0  0  0  0  0  0  0  0  0  0
   26.9718   -0.3926   -9.1601 C   0  0  0  0  0  0  0  0  0  0  0  0
   27.9368   -0.0876   -8.1322 C   0  0  0  0  0  0  0  0  0  0  0  0
   28.7327    0.1675   -7.3120 N   0  0  0  0  0  0  0  0  0  0  0  0
   25.6154   -0.4707   -8.9001 C   0  0  0  0  0  0  0  0  0  0  0  0
   21.2176   -1.6577  -10.1365 C   0  0  0  0  0  0  0  0  0  0  0  0
  1  2  1  1
  3  2  1  6
  3  4  1  0
  4  5  1  6
  5  6  1  6
  6  7  1  1
  7  8  1  1
  8  9  1  0
  9 10  2  0
 10 11  1  0
 11 12  1  0
 11 13  2  0
 13 14  1  0
 14 15  1  0
 15 16  3  0
 14 17  2  0
 18  7  1  6
 18  3  1  0
 17  9  1  0
M  END
$$$$
