_rank9
     RDKit          3D

 18 19  0  0  0  0  0  0  0  0999 V2000
   19.4424   -3.6229  -11.2882 C   0  0  0  0  0  0  0  0  0  0  0  0
   19.7735   -2.3207  -11.8905 N   0  0  0  0  0  0  0  0  0  0  0  0
   19.9319   -1.4030  -10.7791 C   0  0  2  0  0  0  0  0  0  0  0  0
   19.3967   -0.0696  -11.2134 C   0  0  0  0  0  0  0  0  0  0  0  0
   19.9926    0.9545  -10.2446 C   0  0  0  0  0  0  0  0  0  0  0  0
   21.4448    1.1029  -10.6787 C   0  0  0  0  0  0  0  0  0  0  0  0
   22.1568   -0.2258  -10.6759 C   0  0  1  0  0  0  0  0  0  0  0  0
   23.2242   -0.1115   -9.7787 O   0  0  0  0  0  0  0  0  0  0  0  0
   24.5478   -0.3180   -9.9748 C   0  0  0  0  0  0  0  0  0  0  0  0
   24.9944   -0.6895  -11.2501 C   0  0  0  0  0  0  0  0  0  0  0  0
   26.3213   -0.9112  -11.5051 C   0  0  0  0  0  0  0  0  0  0  0  0
   26.7823   -1.2712  -12.7265 F   0  0  0  0  0  0  0  0  0  0  0  0
   27.2474   -0.7658  -10.4808 C   0  0  0  0  0  0  0  0  0  0  0  0
   26.8470   -0.4043   -9.2232 C   0  0  0  0  0  0  0  0  0  0  0  0
   27.8326   -0.2616   -8.1795 C   0  0  0  0  0  0  0  0  0  0  0  0
   28.6197   -0.1339   -7.3220 N   0  0  0  0  0  0  0  0  0  0  0  0
   25.4990   -0.1882   -9.0007 C   0  0  0  0  0  0  0  0  0  0  0  0
   21.2909   -1.3610  -10.2104 C   0  0  0  0  0  0  0  0  0  0  0  0
  1  2  1  1
  3  2  1  6
  3  4  1  0
  4  5  1  6
  5  6  1  6
  6  7  1  1
  7  8  1  1
  8  9  1  0
  9 10  2  0
 10 11  1  0
 11 12  1  0
 11 13  2  0
 13 14  1  0
 14 15  1  0
 15 16  3  0
 14 17  2  0
 18  7  1  6
 18  3  1  0
 17  9  1  0
M  END
$$$$
