_rank1
     RDKit          3D

 18 19  0  0  0  0  0  0  0  0999 V2000
   26.8714    0.4768   -7.3321 C   0  0  0  0  0  0  0  0  0  0  0  0
   26.3032    1.0397   -8.5684 N   0  0  0  0  0  0  0  0  0  0  0  0
   26.3408   -0.0340   -9.5421 C   0  0  2  0  0  0  0  0  0  0  0  0
   27.1981    0.4226  -10.6865 C   0  0  0  0  0  0  0  0  0  0  0  0
   26.8419   -0.4882  -11.8637 C   0  0  0  0  0  0  0  0  0  0  0  0
   25.4835    0.0065  -12.3425 C   0  0  0  0  0  0  0  0  0  0  0  0
   24.4688   -0.0122  -11.2278 C   0  0  1  0  0  0  0  0  0  0  0  0
   23.4355   -0.8630  -11.6349 O   0  0  0  0  0  0  0  0  0  0  0  0
   22.1361   -0.8922  -11.2561 C   0  0  0  0  0  0  0  0  0  0  0  0
   21.3631   -2.0179  -11.5710 C   0  0  0  0  0  0  0  0  0  0  0  0
   20.0442   -2.1012  -11.2127 C   0  0  0  0  0  0  0  0  0  0  0  0
   19.2726   -3.1754  -11.5033 F   0  0  0  0  0  0  0  0  0  0  0  0
   19.4563   -1.0497  -10.5223 C   0  0  0  0  0  0  0  0  0  0  0  0
   20.1807    0.0650  -10.1980 C   0  0  0  0  0  0  0  0  0  0  0  0
   19.5420    1.1412   -9.4807 C   0  0  0  0  0  0  0  0  0  0  0  0
   19.0415    2.0201   -8.8905 N   0  0  0  0  0  0  0  0  0  0  0  0
   21.5106    0.1158  -10.5755 C   0  0  0  0  0  0  0  0  0  0  0  0
   25.0169   -0.5478   -9.9365 C   0  0  0  0  0  0  0  0  0  0  0  0
  1  2  1  1
  3  2  1  1
  3  4  1  0
  4  5  1  6
  5  6  1  6
  6  7  1  1
  7  8  1  6
  8  9  1  0
  9 10  2  0
 10 11  1  0
 11 12  1  0
 11 13  2  0
 13 14  1  0
 14 15  1  0
 15 16  3  0
 14 17  2  0
 18  7  1  6
 18  3  1  0
 17  9  1  0
M  END
$$$$
