_rank7
     RDKit          3D

 18 19  0  0  0  0  0  0  0  0999 V2000
   19.1688   -3.7268  -11.6642 C   0  0  0  0  0  0  0  0  0  0  0  0
   19.7984   -2.4265  -11.9495 N   0  0  0  0  0  0  0  0  0  0  0  0
   20.0134   -1.8029  -10.6582 C   0  0  2  0  0  0  0  0  0  0  0  0
   19.4758   -0.4036  -10.7363 C   0  0  0  0  0  0  0  0  0  0  0  0
   20.1232    0.3571   -9.5767 C   0  0  0  0  0  0  0  0  0  0  0  0
   21.5576    0.6039  -10.0248 C   0  0  0  0  0  0  0  0  0  0  0  0
   22.2539   -0.6873  -10.3717 C   0  0  1  0  0  0  0  0  0  0  0  0
   23.3590   -0.7931   -9.5203 O   0  0  0  0  0  0  0  0  0  0  0  0
   24.6805   -0.6965   -9.7984 C   0  0  0  0  0  0  0  0  0  0  0  0
   25.0940   -0.7066  -11.1373 C   0  0  0  0  0  0  0  0  0  0  0  0
   26.4172   -0.6120  -11.4764 C   0  0  0  0  0  0  0  0  0  0  0  0
   26.8467   -0.6194  -12.7607 F   0  0  0  0  0  0  0  0  0  0  0  0
   27.3729   -0.5034  -10.4750 C   0  0  0  0  0  0  0  0  0  0  0  0
   27.0053   -0.4902   -9.1570 C   0  0  0  0  0  0  0  0  0  0  0  0
   28.0213   -0.3766   -8.1392 C   0  0  0  0  0  0  0  0  0  0  0  0
   28.8317   -0.2781   -7.2998 N   0  0  0  0  0  0  0  0  0  0  0  0
   25.6600   -0.5876   -8.8502 C   0  0  0  0  0  0  0  0  0  0  0  0
   21.3953   -1.9002  -10.1553 C   0  0  0  0  0  0  0  0  0  0  0  0
  1  2  1  1
  3  2  1  6
  3  4  1  0
  4  5  1  6
  5  6  1  6
  6  7  1  1
  7  8  1  1
  8  9  1  0
  9 10  2  0
 10 11  1  0
 11 12  1  0
 11 13  2  0
 13 14  1  0
 14 15  1  0
 15 16  3  0
 14 17  2  0
 18  7  1  6
 18  3  1  0
 17  9  1  0
M  END
$$$$
