_rank20
     RDKit          3D

 18 19  0  0  0  0  0  0  0  0999 V2000
   28.7921    4.3620  -14.1947 C   0  0  0  0  0  0  0  0  0  0  0  0
   27.7778    3.3339  -14.4819 N   0  0  0  0  0  0  0  0  0  0  0  0
   27.8708    2.3768  -13.3967 C   0  0  2  0  0  0  0  0  0  0  0  0
   28.0364    1.0154  -14.0069 C   0  0  0  0  0  0  0  0  0  0  0  0
   27.6591    0.0177  -12.9094 C   0  0  0  0  0  0  0  0  0  0  0  0
   26.1397    0.0835  -12.8282 C   0  0  0  0  0  0  0  0  0  0  0  0
   25.6648    1.4896  -12.5641 C   0  0  1  0  0  0  0  0  0  0  0  0
   24.9527    1.4573  -11.3602 O   0  0  0  0  0  0  0  0  0  0  0  0
   24.8485    0.4694  -10.4405 C   0  0  0  0  0  0  0  0  0  0  0  0
   23.6918   -0.3216  -10.4232 C   0  0  0  0  0  0  0  0  0  0  0  0
   23.5330   -1.3341   -9.5152 C   0  0  0  0  0  0  0  0  0  0  0  0
   22.4270   -2.1144   -9.4741 F   0  0  0  0  0  0  0  0  0  0  0  0
   24.5374   -1.5858   -8.5901 C   0  0  0  0  0  0  0  0  0  0  0  0
   25.6804   -0.8336   -8.5779 C   0  0  0  0  0  0  0  0  0  0  0  0
   26.7060   -1.1189   -7.6044 C   0  0  0  0  0  0  0  0  0  0  0  0
   27.5241   -1.3560   -6.8009 N   0  0  0  0  0  0  0  0  0  0  0  0
   25.8077    0.1813   -9.5092 C   0  0  0  0  0  0  0  0  0  0  0  0
   26.7876    2.4737  -12.4020 C   0  0  0  0  0  0  0  0  0  0  0  0
  1  2  1  1
  3  2  1  6
  3  4  1  0
  4  5  1  6
  5  6  1  6
  6  7  1  1
  7  8  1  1
  8  9  1  0
  9 10  2  0
 10 11  1  0
 11 12  1  0
 11 13  2  0
 13 14  1  0
 14 15  1  0
 15 16  3  0
 14 17  2  0
 18  7  1  6
 18  3  1  0
 17  9  1  0
M  END
$$$$
