_rank3
     RDKit          3D

 24 26  0  0  0  0  0  0  0  0999 V2000
   28.3929    1.3331   -8.5997 C   0  0  0  0  0  0  0  0  0  0  0  0
   27.7220   -0.3067   -8.7611 S   0  0  1  0  0  6  0  0  0  0  0  0
   28.8202   -1.1580   -9.2806 O   0  0  0  0  0  0  0  0  0  0  0  0
   27.3503   -0.7499   -7.3519 O   0  0  0  0  0  0  0  0  0  0  0  0
   26.2894   -0.2811   -9.6985 C   0  0  0  0  0  0  0  0  0  0  0  0
   25.0795   -0.5634   -9.0969 C   0  0  0  0  0  0  0  0  0  0  0  0
   23.8911   -0.5514   -9.8303 C   0  0  0  0  0  0  0  0  0  0  0  0
   23.8831   -0.2614  -11.1628 C   0  0  0  0  0  0  0  0  0  0  0  0
   22.7120   -0.2451  -11.9057 O   0  0  0  0  0  0  0  0  0  0  0  0
   21.4529   -0.4554  -11.3459 C   0  0  0  0  0  0  0  0  0  0  0  0
   20.8156   -1.6743  -11.4052 C   0  0  0  0  0  0  0  0  0  0  0  0
   19.5753   -1.8149  -10.8336 C   0  0  0  0  0  0  0  0  0  0  0  0
   18.9185   -3.0129  -10.8780 F   0  0  0  0  0  0  0  0  0  0  0  0
   18.9758   -0.7589  -10.2112 C   0  0  0  0  0  0  0  0  0  0  0  0
   19.5902    0.4556  -10.1418 C   0  0  0  0  0  0  0  0  0  0  0  0
   18.9408    1.5667   -9.4791 C   0  0  0  0  0  0  0  0  0  0  0  0
   18.4270    2.4671   -8.9477 N   0  0  0  0  0  0  0  0  0  0  0  0
   20.8311    0.6037  -10.7114 C   0  0  0  0  0  0  0  0  0  0  0  0
   25.0744    0.0229  -11.7838 C   0  0  0  0  0  0  0  0  0  0  0  0
   26.2386    0.0070  -11.0464 C   0  0  0  0  0  0  0  0  0  0  0  0
   27.3088    0.3469  -11.9805 C   0  0  0  0  0  0  0  0  0  0  0  0
   28.5061    0.0873  -11.7920 O   0  0  0  0  0  0  0  0  0  0  0  0
   26.6679    1.0412  -13.1516 C   0  0  0  0  0  0  0  0  0  0  0  0
   25.3410    0.3642  -13.1999 C   0  0  0  0  0  0  0  0  0  0  0  0
  1  2  1  6
  2  3  2  0
  2  4  2  0
  2  5  1  6
  5  6  2  0
  6  7  1  0
  7  8  2  0
  8  9  1  0
  9 10  1  0
 10 11  2  0
 11 12  1  0
 12 13  1  0
 12 14  2  0
 14 15  1  0
 15 16  1  0
 16 17  3  0
 15 18  2  0
  8 19  1  0
 19 20  2  0
 20 21  1  0
 21 22  2  0
 23 21  1  6
 23 24  1  0
 20  5  1  0
 18 10  1  0
 24 19  1  6
M  END
$$$$
