_rank2
     RDKit          3D

 24 26  0  0  0  0  0  0  0  0999 V2000
   28.5481    1.0766   -8.7493 C   0  0  0  0  0  0  0  0  0  0  0  0
   27.6164   -0.4372   -8.6764 S   0  0  1  0  0  6  0  0  0  0  0  0
   28.5446   -1.5192   -9.0865 O   0  0  0  0  0  0  0  0  0  0  0  0
   27.2257   -0.6210   -7.2155 O   0  0  0  0  0  0  0  0  0  0  0  0
   26.1759   -0.3018   -9.5921 C   0  0  0  0  0  0  0  0  0  0  0  0
   24.9552   -0.3721   -8.9513 C   0  0  0  0  0  0  0  0  0  0  0  0
   23.7603   -0.2653   -9.6661 C   0  0  0  0  0  0  0  0  0  0  0  0
   23.7562   -0.0883  -11.0183 C   0  0  0  0  0  0  0  0  0  0  0  0
   22.5787    0.0198  -11.7432 O   0  0  0  0  0  0  0  0  0  0  0  0
   21.3290   -0.3036  -11.2171 C   0  0  0  0  0  0  0  0  0  0  0  0
   20.7975   -1.5703  -11.3085 C   0  0  0  0  0  0  0  0  0  0  0  0
   19.5605   -1.8229  -10.7693 C   0  0  0  0  0  0  0  0  0  0  0  0
   19.0075   -3.0706  -10.8460 F   0  0  0  0  0  0  0  0  0  0  0  0
   18.8605   -0.8304  -10.1471 C   0  0  0  0  0  0  0  0  0  0  0  0
   19.3693    0.4299  -10.0462 C   0  0  0  0  0  0  0  0  0  0  0  0
   18.6140    1.4724   -9.3843 C   0  0  0  0  0  0  0  0  0  0  0  0
   18.0042    2.3046   -8.8433 N   0  0  0  0  0  0  0  0  0  0  0  0
   20.6062    0.6899  -10.5834 C   0  0  0  0  0  0  0  0  0  0  0  0
   24.9581   -0.0153  -11.6782 C   0  0  0  0  0  0  0  0  0  0  0  0
   26.1288   -0.1224  -10.9588 C   0  0  0  0  0  0  0  0  0  0  0  0
   27.2100   -0.0046  -11.9337 C   0  0  0  0  0  0  0  0  0  0  0  0
   28.3680   -0.4025  -11.7407 O   0  0  0  0  0  0  0  0  0  0  0  0
   26.6351    0.6681  -13.1507 C   0  0  0  0  0  0  0  0  0  0  0  0
   25.2308    0.1694  -13.1220 C   0  0  0  0  0  0  0  0  0  0  0  0
  1  2  1  6
  2  3  2  0
  2  4  2  0
  2  5  1  6
  5  6  2  0
  6  7  1  0
  7  8  2  0
  8  9  1  0
  9 10  1  0
 10 11  2  0
 11 12  1  0
 12 13  1  0
 12 14  2  0
 14 15  1  0
 15 16  1  0
 16 17  3  0
 15 18  2  0
  8 19  1  0
 19 20  2  0
 20 21  1  0
 21 22  2  0
 23 21  1  6
 23 24  1  0
 20  5  1  0
 18 10  1  0
 24 19  1  6
M  END
$$$$
