_rank12
     RDKit          3D

 24 26  0  0  0  0  0  0  0  0999 V2000
   27.4976   -1.3570   -7.5423 C   0  0  0  0  0  0  0  0  0  0  0  0
   27.6026   -0.1499   -8.8450 S   0  0  1  0  0  6  0  0  0  0  0  0
   28.0930    1.1012   -8.2167 O   0  0  0  0  0  0  0  0  0  0  0  0
   28.6443   -0.6765   -9.8237 O   0  0  0  0  0  0  0  0  0  0  0  0
   26.1113   -0.0326   -9.6782 C   0  0  0  0  0  0  0  0  0  0  0  0
   24.9295   -0.1246   -8.9708 C   0  0  0  0  0  0  0  0  0  0  0  0
   23.6951   -0.0329   -9.6173 C   0  0  0  0  0  0  0  0  0  0  0  0
   23.6129    0.1501  -10.9662 C   0  0  0  0  0  0  0  0  0  0  0  0
   22.3953    0.2432  -11.6238 O   0  0  0  0  0  0  0  0  0  0  0  0
   21.1685    0.1041  -10.9766 C   0  0  0  0  0  0  0  0  0  0  0  0
   20.5114    1.1719  -10.4080 C   0  0  0  0  0  0  0  0  0  0  0  0
   19.3054    0.9669   -9.7847 C   0  0  0  0  0  0  0  0  0  0  0  0
   18.6309    2.0080   -9.2106 F   0  0  0  0  0  0  0  0  0  0  0  0
   18.7591   -0.2823   -9.7270 C   0  0  0  0  0  0  0  0  0  0  0  0
   19.3939   -1.3521  -10.2837 C   0  0  0  0  0  0  0  0  0  0  0  0
   18.8023   -2.6713  -10.2132 C   0  0  0  0  0  0  0  0  0  0  0  0
   18.3180   -3.7289  -10.1504 N   0  0  0  0  0  0  0  0  0  0  0  0
   20.6007   -1.1545  -10.9089 C   0  0  0  0  0  0  0  0  0  0  0  0
   24.7749    0.2445  -11.6917 C   0  0  0  0  0  0  0  0  0  0  0  0
   25.9853    0.1522  -11.0392 C   0  0  0  0  0  0  0  0  0  0  0  0
   27.0086    0.2910  -12.0722 C   0  0  0  0  0  0  0  0  0  0  0  0
   28.1814   -0.0899  -11.9462 O   0  0  0  0  0  0  0  0  0  0  0  0
   26.3565    0.9603  -13.2516 C   0  0  0  0  0  0  0  0  0  0  0  0
   24.9638    0.4398  -13.1474 C   0  0  0  0  0  0  0  0  0  0  0  0
  1  2  1  6
  2  3  2  0
  2  4  2  0
  2  5  1  6
  5  6  2  0
  6  7  1  0
  7  8  2  0
  8  9  1  0
  9 10  1  0
 10 11  2  0
 11 12  1  0
 12 13  1  0
 12 14  2  0
 14 15  1  0
 15 16  1  0
 16 17  3  0
 15 18  2  0
  8 19  1  0
 19 20  2  0
 20 21  1  0
 21 22  2  0
 23 21  1  6
 23 24  1  0
 20  5  1  0
 18 10  1  0
 24 19  1  6
M  END
$$$$
