_rank17
     RDKit          3D

 24 26  0  0  0  0  0  0  0  0999 V2000
   28.8414   -0.7116   -9.6117 C   0  0  0  0  0  0  0  0  0  0  0  0
   27.4617   -0.0826   -8.6812 S   0  0  1  0  0  6  0  0  0  0  0  0
   27.5213   -0.7376   -7.3516 O   0  0  0  0  0  0  0  0  0  0  0  0
   27.7040    1.4136   -8.5287 O   0  0  0  0  0  0  0  0  0  0  0  0
   26.0027   -0.2921   -9.5525 C   0  0  0  0  0  0  0  0  0  0  0  0
   24.8640   -0.6930   -8.8831 C   0  0  0  0  0  0  0  0  0  0  0  0
   23.6567   -0.8735   -9.5614 C   0  0  0  0  0  0  0  0  0  0  0  0
   23.5595   -0.6610  -10.9049 C   0  0  0  0  0  0  0  0  0  0  0  0
   22.3683   -0.8356  -11.5937 O   0  0  0  0  0  0  0  0  0  0  0  0
   21.1168   -0.6577  -11.0064 C   0  0  0  0  0  0  0  0  0  0  0  0
   20.7050    0.5567  -10.5054 C   0  0  0  0  0  0  0  0  0  0  0  0
   19.4591    0.6648   -9.9388 C   0  0  0  0  0  0  0  0  0  0  0  0
   19.0241    1.8575   -9.4324 F   0  0  0  0  0  0  0  0  0  0  0  0
   18.6329   -0.4192   -9.8708 C   0  0  0  0  0  0  0  0  0  0  0  0
   19.0220   -1.6298  -10.3610 C   0  0  0  0  0  0  0  0  0  0  0  0
   18.1346   -2.7707  -10.2804 C   0  0  0  0  0  0  0  0  0  0  0  0
   17.4220   -3.6906  -10.2262 N   0  0  0  0  0  0  0  0  0  0  0  0
   20.2670   -1.7453  -10.9292 C   0  0  0  0  0  0  0  0  0  0  0  0
   24.6787   -0.2617  -11.5929 C   0  0  0  0  0  0  0  0  0  0  0  0
   25.8628   -0.0879  -10.9093 C   0  0  0  0  0  0  0  0  0  0  0  0
   26.8428    0.3338  -11.9070 C   0  0  0  0  0  0  0  0  0  0  0  0
   28.0700    0.2400  -11.7605 O   0  0  0  0  0  0  0  0  0  0  0  0
   26.0723    0.8747  -13.0809 C   0  0  0  0  0  0  0  0  0  0  0  0
   24.8437    0.0320  -13.0349 C   0  0  0  0  0  0  0  0  0  0  0  0
  1  2  1  6
  2  3  2  0
  2  4  2  0
  2  5  1  6
  5  6  2  0
  6  7  1  0
  7  8  2  0
  8  9  1  0
  9 10  1  0
 10 11  2  0
 11 12  1  0
 12 13  1  0
 12 14  2  0
 14 15  1  0
 15 16  1  0
 16 17  3  0
 15 18  2  0
  8 19  1  0
 19 20  2  0
 20 21  1  0
 21 22  2  0
 23 21  1  6
 23 24  1  0
 20  5  1  0
 18 10  1  0
 24 19  1  6
M  END
$$$$
