_rank10
     RDKit          3D

 24 26  0  0  0  0  0  0  0  0999 V2000
   27.9107    1.6281   -8.6415 C   0  0  0  0  0  0  0  0  0  0  0  0
   27.3712   -0.0648   -8.7313 S   0  0  1  0  0  6  0  0  0  0  0  0
   28.5166   -0.8403   -9.2670 O   0  0  0  0  0  0  0  0  0  0  0  0
   27.0865   -0.4923   -7.2971 O   0  0  0  0  0  0  0  0  0  0  0  0
   25.9094   -0.1844   -9.6149 C   0  0  0  0  0  0  0  0  0  0  0  0
   24.7368   -0.4815   -8.9499 C   0  0  0  0  0  0  0  0  0  0  0  0
   23.5262   -0.5866   -9.6381 C   0  0  0  0  0  0  0  0  0  0  0  0
   23.4591   -0.4001  -10.9874 C   0  0  0  0  0  0  0  0  0  0  0  0
   22.2652   -0.5007  -11.6861 O   0  0  0  0  0  0  0  0  0  0  0  0
   21.0170   -0.3406  -11.0865 C   0  0  0  0  0  0  0  0  0  0  0  0
   20.6254    0.8457  -10.5079 C   0  0  0  0  0  0  0  0  0  0  0  0
   19.3818    0.9374   -9.9336 C   0  0  0  0  0  0  0  0  0  0  0  0
   18.9667    2.1021   -9.3510 F   0  0  0  0  0  0  0  0  0  0  0  0
   18.5380   -0.1350   -9.9340 C   0  0  0  0  0  0  0  0  0  0  0  0
   18.9069   -1.3178  -10.5016 C   0  0  0  0  0  0  0  0  0  0  0  0
   18.0011   -2.4469  -10.4930 C   0  0  0  0  0  0  0  0  0  0  0  0
   17.2775   -3.3598  -10.4945 N   0  0  0  0  0  0  0  0  0  0  0  0
   20.1496   -1.4169  -11.0780 C   0  0  0  0  0  0  0  0  0  0  0  0
   24.6124   -0.1035  -11.6711 C   0  0  0  0  0  0  0  0  0  0  0  0
   25.7992   -0.0033  -10.9777 C   0  0  0  0  0  0  0  0  0  0  0  0
   26.8185    0.3185  -11.9732 C   0  0  0  0  0  0  0  0  0  0  0  0
   28.0335    0.1357  -11.8098 O   0  0  0  0  0  0  0  0  0  0  0  0
   26.1033    0.8874  -13.1686 C   0  0  0  0  0  0  0  0  0  0  0  0
   24.8138    0.1416  -13.1175 C   0  0  0  0  0  0  0  0  0  0  0  0
  1  2  1  6
  2  3  2  0
  2  4  2  0
  2  5  1  6
  5  6  2  0
  6  7  1  0
  7  8  2  0
  8  9  1  0
  9 10  1  0
 10 11  2  0
 11 12  1  0
 12 13  1  0
 12 14  2  0
 14 15  1  0
 15 16  1  0
 16 17  3  0
 15 18  2  0
  8 19  1  0
 19 20  2  0
 20 21  1  0
 21 22  2  0
 23 21  1  6
 23 24  1  0
 20  5  1  0
 18 10  1  0
 24 19  1  6
M  END
$$$$
