_rank7
     RDKit          3D

 24 26  0  0  0  0  0  0  0  0999 V2000
   28.8238    0.4122   -9.1368 C   0  0  0  0  0  0  0  0  0  0  0  0
   27.5158   -0.6535   -8.5725 S   0  0  1  0  0  6  0  0  0  0  0  0
   28.0256   -2.0412   -8.6944 O   0  0  0  0  0  0  0  0  0  0  0  0
   27.2991   -0.3124   -7.1037 O   0  0  0  0  0  0  0  0  0  0  0  0
   26.0610   -0.3158   -9.4100 C   0  0  0  0  0  0  0  0  0  0  0  0
   24.8727   -0.2571   -8.7099 C   0  0  0  0  0  0  0  0  0  0  0  0
   23.6674    0.0162   -9.3601 C   0  0  0  0  0  0  0  0  0  0  0  0
   23.6210    0.2342  -10.7055 C   0  0  0  0  0  0  0  0  0  0  0  0
   22.4326    0.5068  -11.3666 O   0  0  0  0  0  0  0  0  0  0  0  0
   21.1788    0.2403  -10.8189 C   0  0  0  0  0  0  0  0  0  0  0  0
   20.3496    1.2383  -10.3588 C   0  0  0  0  0  0  0  0  0  0  0  0
   19.1264    0.9081   -9.8299 C   0  0  0  0  0  0  0  0  0  0  0  0
   18.2829    1.8778   -9.3645 F   0  0  0  0  0  0  0  0  0  0  0  0
   18.7318   -0.3962   -9.7592 C   0  0  0  0  0  0  0  0  0  0  0  0
   19.5381   -1.3986  -10.2093 C   0  0  0  0  0  0  0  0  0  0  0  0
   19.1059   -2.7776  -10.1263 C   0  0  0  0  0  0  0  0  0  0  0  0
   18.7477   -3.8840  -10.0586 N   0  0  0  0  0  0  0  0  0  0  0  0
   20.7631   -1.0757  -10.7395 C   0  0  0  0  0  0  0  0  0  0  0  0
   24.7901    0.1810  -11.4237 C   0  0  0  0  0  0  0  0  0  0  0  0
   25.9715   -0.0898  -10.7676 C   0  0  0  0  0  0  0  0  0  0  0  0
   27.0116   -0.0741  -11.7931 C   0  0  0  0  0  0  0  0  0  0  0  0
   28.1197   -0.6155  -11.6693 O   0  0  0  0  0  0  0  0  0  0  0  0
   26.4665    0.7008  -12.9621 C   0  0  0  0  0  0  0  0  0  0  0  0
   25.0146    0.3757  -12.8744 C   0  0  0  0  0  0  0  0  0  0  0  0
  1  2  1  6
  2  3  2  0
  2  4  2  0
  2  5  1  6
  5  6  2  0
  6  7  1  0
  7  8  2  0
  8  9  1  0
  9 10  1  0
 10 11  2  0
 11 12  1  0
 12 13  1  0
 12 14  2  0
 14 15  1  0
 15 16  1  0
 16 17  3  0
 15 18  2  0
  8 19  1  0
 19 20  2  0
 20 21  1  0
 21 22  2  0
 23 21  1  6
 23 24  1  0
 20  5  1  0
 18 10  1  0
 24 19  1  6
M  END
$$$$
