_rank19
     RDKit          3D

 24 26  0  0  0  0  0  0  0  0999 V2000
   29.3176   -0.2171   -9.0053 C   0  0  0  0  0  0  0  0  0  0  0  0
   28.0966   -1.4703   -9.3277 S   0  0  1  0  0  6  0  0  0  0  0  0
   28.5994   -2.2564  -10.4808 O   0  0  0  0  0  0  0  0  0  0  0  0
   28.0572   -2.3492   -8.0841 O   0  0  0  0  0  0  0  0  0  0  0  0
   26.5481   -0.7658   -9.5220 C   0  0  0  0  0  0  0  0  0  0  0  0
   25.5504   -1.0588   -8.6142 C   0  0  0  0  0  0  0  0  0  0  0  0
   24.2759   -0.5023   -8.7413 C   0  0  0  0  0  0  0  0  0  0  0  0
   23.9721    0.3479   -9.7635 C   0  0  0  0  0  0  0  0  0  0  0  0
   22.7117    0.9092   -9.9043 O   0  0  0  0  0  0  0  0  0  0  0  0
   21.5739    0.1602  -10.2001 C   0  0  0  0  0  0  0  0  0  0  0  0
   21.6192   -1.2026  -10.3903 C   0  0  0  0  0  0  0  0  0  0  0  0
   20.4616   -1.8817  -10.6795 C   0  0  0  0  0  0  0  0  0  0  0  0
   20.4764   -3.2345  -10.8744 F   0  0  0  0  0  0  0  0  0  0  0  0
   19.2744   -1.2160  -10.7784 C   0  0  0  0  0  0  0  0  0  0  0  0
   19.2088    0.1327  -10.5935 C   0  0  0  0  0  0  0  0  0  0  0  0
   17.9421    0.8248  -10.7028 C   0  0  0  0  0  0  0  0  0  0  0  0
   16.9199    1.3780  -10.7811 N   0  0  0  0  0  0  0  0  0  0  0  0
   20.3629    0.8185  -10.3039 C   0  0  0  0  0  0  0  0  0  0  0  0
   24.9481    0.6546  -10.6793 C   0  0  0  0  0  0  0  0  0  0  0  0
   26.2009    0.0973  -10.5402 C   0  0  0  0  0  0  0  0  0  0  0  0
   26.9949    0.6148  -11.6517 C   0  0  0  0  0  0  0  0  0  0  0  0
   28.0320    0.0829  -12.0736 O   0  0  0  0  0  0  0  0  0  0  0  0
   26.3107    1.8634  -12.1386 C   0  0  0  0  0  0  0  0  0  0  0  0
   24.8822    1.5363  -11.8672 C   0  0  0  0  0  0  0  0  0  0  0  0
  1  2  1  6
  2  3  2  0
  2  4  2  0
  2  5  1  6
  5  6  2  0
  6  7  1  0
  7  8  2  0
  8  9  1  0
  9 10  1  0
 10 11  2  0
 11 12  1  0
 12 13  1  0
 12 14  2  0
 14 15  1  0
 15 16  1  0
 16 17  3  0
 15 18  2  0
  8 19  1  0
 19 20  2  0
 20 21  1  0
 21 22  2  0
 23 21  1  6
 23 24  1  0
 20  5  1  0
 18 10  1  0
 24 19  1  6
M  END
$$$$
