_rank17
     RDKit          3D

 19 21  0  0  0  0  0  0  0  0999 V2000
   29.2196    0.7332   -9.1806 N   0  0  0  0  0  0  0  0  0  0  0  0
   28.1403    0.3769   -9.0903 C   0  0  0  0  0  0  0  0  0  0  0  0
   26.7643   -0.0779   -8.9523 C   0  0  0  0  0  0  0  0  0  0  0  0
   26.2111   -0.3659   -7.7408 C   0  0  0  0  0  0  0  0  0  0  0  0
   24.9213   -0.7870   -7.6686 C   0  0  0  0  0  0  0  0  0  0  0  0
   24.3954   -1.0683   -6.4347 F   0  0  0  0  0  0  0  0  0  0  0  0
   24.1625   -0.9267   -8.8150 C   0  0  0  0  0  0  0  0  0  0  0  0
   24.6814   -0.6447  -10.0811 C   0  0  0  0  0  0  0  0  0  0  0  0
   23.9045   -0.7888  -11.2304 N   0  0  0  0  0  0  0  0  0  0  0  0
   22.4959   -0.5825  -11.3362 C   0  0  1  0  0  0  0  0  0  0  0  0
   21.9196   -1.6298  -12.2311 C   0  0  0  0  0  0  0  0  0  0  0  0
   21.0492   -2.6431  -11.4713 C   0  0  0  0  0  0  0  0  0  0  0  0
   19.8620   -1.9989  -10.8440 C   0  0  0  0  0  0  0  0  0  0  0  0
   20.3041   -0.7687  -10.1206 C   0  0  0  0  0  0  0  0  0  0  0  0
   21.8102   -0.7477   -9.9720 C   0  0  2  0  0  0  0  0  0  0  0  0
   22.1427    0.5342   -9.2316 C   0  0  0  0  0  0  0  0  0  0  0  0
   22.1526    1.5647  -10.3334 C   0  0  0  0  0  0  0  0  0  0  0  0
   22.1035    0.8288  -11.6541 C   0  0  0  0  0  0  0  0  0  0  0  0
   25.9913   -0.2235  -10.0822 C   0  0  0  0  0  0  0  0  0  0  0  0
  1  2  3  0
  2  3  1  0
  3  4  2  0
  4  5  1  0
  5  6  1  0
  5  7  2  0
  7  8  1  0
  8  9  1  0
 10  9  1  1
 11 10  1  1
 12 11  1  1
 13 12  1  6
 14 13  1  6
 15 14  1  6
 16 15  1  1
 17 16  1  6
 18 17  1  6
  8 19  2  0
 19  3  1  0
 15 10  1  0
 18 10  1  0
M  END
$$$$
