_rank16
     RDKit          3D

 19 21  0  0  0  0  0  0  0  0999 V2000
   28.7021    2.1736   -9.3579 N   0  0  0  0  0  0  0  0  0  0  0  0
   27.8907    1.3759   -9.2852 C   0  0  0  0  0  0  0  0  0  0  0  0
   26.8525    0.3620   -9.1704 C   0  0  0  0  0  0  0  0  0  0  0  0
   27.1398   -0.9528   -8.9567 C   0  0  0  0  0  0  0  0  0  0  0  0
   26.1317   -1.8584   -8.8574 C   0  0  0  0  0  0  0  0  0  0  0  0
   26.4549   -3.1727   -8.6423 F   0  0  0  0  0  0  0  0  0  0  0  0
   24.8140   -1.4583   -8.9712 C   0  0  0  0  0  0  0  0  0  0  0  0
   24.4655   -0.1233   -9.1903 C   0  0  0  0  0  0  0  0  0  0  0  0
   23.1312    0.2675   -9.3023 N   0  0  0  0  0  0  0  0  0  0  0  0
   22.2277   -0.0821  -10.3508 C   0  0  1  0  0  0  0  0  0  0  0  0
   22.9819   -0.1464  -11.6379 C   0  0  0  0  0  0  0  0  0  0  0  0
   23.1198   -1.5809  -12.1715 C   0  0  0  0  0  0  0  0  0  0  0  0
   21.7970   -2.1879  -12.4877 C   0  0  0  0  0  0  0  0  0  0  0  0
   20.8683   -1.9492  -11.3420 C   0  0  0  0  0  0  0  0  0  0  0  0
   21.6325   -1.4794  -10.1229 C   0  0  2  0  0  0  0  0  0  0  0  0
   20.5984   -1.2691   -9.0326 C   0  0  0  0  0  0  0  0  0  0  0  0
   20.0674    0.1100   -9.3357 C   0  0  0  0  0  0  0  0  0  0  0  0
   20.9706    0.7339  -10.3766 C   0  0  0  0  0  0  0  0  0  0  0  0
   25.5332    0.7398   -9.2808 C   0  0  0  0  0  0  0  0  0  0  0  0
  1  2  3  0
  2  3  1  0
  3  4  2  0
  4  5  1  0
  5  6  1  0
  5  7  2  0
  7  8  1  0
  8  9  1  0
 10  9  1  1
 11 10  1  1
 12 11  1  1
 13 12  1  6
 14 13  1  6
 15 14  1  6
 16 15  1  1
 17 16  1  6
 18 17  1  6
  8 19  2  0
 19  3  1  0
 15 10  1  0
 18 10  1  0
M  END
$$$$
