_rank15
     RDKit          3D

 19 21  0  0  0  0  0  0  0  0999 V2000
   27.8813    1.0565   -6.8074 N   0  0  0  0  0  0  0  0  0  0  0  0
   27.3959    0.6021   -7.7336 C   0  0  0  0  0  0  0  0  0  0  0  0
   26.7824    0.0013   -8.9092 C   0  0  0  0  0  0  0  0  0  0  0  0
   27.4918   -0.7529   -9.7950 C   0  0  0  0  0  0  0  0  0  0  0  0
   26.8695   -1.2907  -10.8765 C   0  0  0  0  0  0  0  0  0  0  0  0
   27.6118   -2.0442  -11.7480 F   0  0  0  0  0  0  0  0  0  0  0  0
   25.5203   -1.0798  -11.0879 C   0  0  0  0  0  0  0  0  0  0  0  0
   24.7478   -0.3149  -10.2106 C   0  0  0  0  0  0  0  0  0  0  0  0
   23.3864   -0.1105  -10.4350 N   0  0  0  0  0  0  0  0  0  0  0  0
   22.4290   -1.0992  -10.8137 C   0  0  1  0  0  0  0  0  0  0  0  0
   22.1988   -2.0171   -9.6587 C   0  0  0  0  0  0  0  0  0  0  0  0
   20.8024   -1.8495   -9.0392 C   0  0  0  0  0  0  0  0  0  0  0  0
   19.7199   -2.1904  -10.0036 C   0  0  0  0  0  0  0  0  0  0  0  0
   19.9988   -1.5115  -11.3048 C   0  0  0  0  0  0  0  0  0  0  0  0
   21.0722   -0.4573  -11.1389 C   0  0  2  0  0  0  0  0  0  0  0  0
   21.2725    0.1596  -12.5105 C   0  0  0  0  0  0  0  0  0  0  0  0
   22.2118   -0.8119  -13.1811 C   0  0  0  0  0  0  0  0  0  0  0  0
   22.7202   -1.7669  -12.1238 C   0  0  0  0  0  0  0  0  0  0  0  0
   25.4394    0.1993   -9.1380 C   0  0  0  0  0  0  0  0  0  0  0  0
  1  2  3  0
  2  3  1  0
  3  4  2  0
  4  5  1  0
  5  6  1  0
  5  7  2  0
  7  8  1  0
  8  9  1  0
 10  9  1  1
 11 10  1  1
 12 11  1  1
 13 12  1  6
 14 13  1  6
 15 14  1  6
 16 15  1  1
 17 16  1  6
 18 17  1  6
  8 19  2  0
 19  3  1  0
 15 10  1  0
 18 10  1  0
M  END
$$$$
