_rank12
     RDKit          3D

 19 21  0  0  0  0  0  0  0  0999 V2000
   27.0209    0.9713   -7.1172 N   0  0  0  0  0  0  0  0  0  0  0  0
   26.6539    0.5414   -8.1074 C   0  0  0  0  0  0  0  0  0  0  0  0
   26.1707    0.0098   -9.3736 C   0  0  0  0  0  0  0  0  0  0  0  0
   26.8646    0.1574  -10.5370 C   0  0  0  0  0  0  0  0  0  0  0  0
   26.3678   -0.3587  -11.6915 C   0  0  0  0  0  0  0  0  0  0  0  0
   27.0906   -0.1928  -12.8440 F   0  0  0  0  0  0  0  0  0  0  0  0
   25.1621   -1.0339  -11.6978 C   0  0  0  0  0  0  0  0  0  0  0  0
   24.4117   -1.2128  -10.5332 C   0  0  0  0  0  0  0  0  0  0  0  0
   23.1965   -1.8973  -10.5530 N   0  0  0  0  0  0  0  0  0  0  0  0
   21.9028   -1.3403  -10.3209 C   0  0  1  0  0  0  0  0  0  0  0  0
   21.8622   -0.7698   -8.9416 C   0  0  0  0  0  0  0  0  0  0  0  0
   21.7999    0.7657   -8.9384 C   0  0  0  0  0  0  0  0  0  0  0  0
   20.5589    1.2749   -9.5856 C   0  0  0  0  0  0  0  0  0  0  0  0
   20.3645    0.5653  -10.8858 C   0  0  0  0  0  0  0  0  0  0  0  0
   21.6223   -0.1769  -11.2834 C   0  0  2  0  0  0  0  0  0  0  0  0
   21.3115   -0.8549  -12.6048 C   0  0  0  0  0  0  0  0  0  0  0  0
   20.6021   -2.1154  -12.1760 C   0  0  0  0  0  0  0  0  0  0  0  0
   20.7679   -2.2518  -10.6786 C   0  0  0  0  0  0  0  0  0  0  0  0
   24.9716   -0.6661   -9.4015 C   0  0  0  0  0  0  0  0  0  0  0  0
  1  2  3  0
  2  3  1  0
  3  4  2  0
  4  5  1  0
  5  6  1  0
  5  7  2  0
  7  8  1  0
  8  9  1  0
 10  9  1  6
 11 10  1  1
 12 11  1  1
 13 12  1  6
 14 13  1  6
 15 14  1  1
 16 15  1  1
 17 16  1  6
 18 17  1  6
  8 19  2  0
 19  3  1  0
 15 10  1  0
 18 10  1  0
M  END
$$$$
