_rank9
     RDKit          3D

 19 21  0  0  0  0  0  0  0  0999 V2000
   28.4738    1.1210  -11.7337 N   0  0  0  0  0  0  0  0  0  0  0  0
   27.5718    0.7418  -11.1486 C   0  0  0  0  0  0  0  0  0  0  0  0
   26.4331    0.2551  -10.3831 C   0  0  0  0  0  0  0  0  0  0  0  0
   26.5817   -0.4900   -9.2519 C   0  0  0  0  0  0  0  0  0  0  0  0
   25.4844   -0.9190   -8.5751 C   0  0  0  0  0  0  0  0  0  0  0  0
   25.6687   -1.6663   -7.4412 F   0  0  0  0  0  0  0  0  0  0  0  0
   24.2153   -0.6064   -9.0237 C   0  0  0  0  0  0  0  0  0  0  0  0
   24.0080    0.1541  -10.1771 C   0  0  0  0  0  0  0  0  0  0  0  0
   22.7217    0.4636  -10.6187 N   0  0  0  0  0  0  0  0  0  0  0  0
   21.5163   -0.2177  -10.2712 C   0  0  1  0  0  0  0  0  0  0  0  0
   20.4688    0.7926   -9.9370 C   0  0  0  0  0  0  0  0  0  0  0  0
   19.3518    0.8570  -10.9905 C   0  0  0  0  0  0  0  0  0  0  0  0
   18.6064   -0.4284  -11.0923 C   0  0  0  0  0  0  0  0  0  0  0  0
   19.5874   -1.5521  -11.1743 C   0  0  0  0  0  0  0  0  0  0  0  0
   20.9784   -1.0280  -11.4598 C   0  0  2  0  0  0  0  0  0  0  0  0
   21.8830   -2.2447  -11.5195 C   0  0  0  0  0  0  0  0  0  0  0  0
   22.1887   -2.5067  -10.0656 C   0  0  0  0  0  0  0  0  0  0  0  0
   21.6987   -1.3176   -9.2693 C   0  0  0  0  0  0  0  0  0  0  0  0
   25.1602    0.5556  -10.8131 C   0  0  0  0  0  0  0  0  0  0  0  0
  1  2  3  0
  2  3  1  0
  3  4  2  0
  4  5  1  0
  5  6  1  0
  5  7  2  0
  7  8  1  0
  8  9  1  0
 10  9  1  6
 11 10  1  1
 12 11  1  1
 13 12  1  6
 14 13  1  6
 15 14  1  1
 16 15  1  1
 17 16  1  6
 18 17  1  6
  8 19  2  0
 19  3  1  0
 15 10  1  0
 18 10  1  0
M  END
$$$$
