_rank18
     RDKit          3D

 19 21  0  0  0  0  0  0  0  0999 V2000
   29.0461    0.6931  -10.0408 N   0  0  0  0  0  0  0  0  0  0  0  0
   27.9928    0.3460   -9.7761 C   0  0  0  0  0  0  0  0  0  0  0  0
   26.6457   -0.1058   -9.4590 C   0  0  0  0  0  0  0  0  0  0  0  0
   26.2743   -0.4564   -8.1957 C   0  0  0  0  0  0  0  0  0  0  0  0
   25.0031   -0.8715   -7.9547 C   0  0  0  0  0  0  0  0  0  0  0  0
   24.6621   -1.2167   -6.6731 F   0  0  0  0  0  0  0  0  0  0  0  0
   24.0804   -0.9419   -8.9809 C   0  0  0  0  0  0  0  0  0  0  0  0
   24.4098   -0.5941  -10.2932 C   0  0  0  0  0  0  0  0  0  0  0  0
   23.4686   -0.6688  -11.3199 N   0  0  0  0  0  0  0  0  0  0  0  0
   22.2043   -1.3295  -11.2682 C   0  0  1  0  0  0  0  0  0  0  0  0
   22.1220   -2.1181  -10.0029 C   0  0  0  0  0  0  0  0  0  0  0  0
   21.1143   -1.5289   -9.0034 C   0  0  0  0  0  0  0  0  0  0  0  0
   19.7245   -1.5430   -9.5386 C   0  0  0  0  0  0  0  0  0  0  0  0
   19.7358   -0.9992  -10.9301 C   0  0  0  0  0  0  0  0  0  0  0  0
   21.0527   -0.3142  -11.2260 C   0  0  2  0  0  0  0  0  0  0  0  0
   20.9525    0.1931  -12.6525 C   0  0  0  0  0  0  0  0  0  0  0  0
   21.3068   -1.0260  -13.4674 C   0  0  0  0  0  0  0  0  0  0  0  0
   21.8478   -2.0735  -12.5197 C   0  0  0  0  0  0  0  0  0  0  0  0
   25.7114   -0.1831  -10.4672 C   0  0  0  0  0  0  0  0  0  0  0  0
  1  2  3  0
  2  3  1  0
  3  4  2  0
  4  5  1  0
  5  6  1  0
  5  7  2  0
  7  8  1  0
  8  9  1  0
 10  9  1  6
 11 10  1  1
 12 11  1  1
 13 12  1  6
 14 13  1  6
 15 14  1  6
 16 15  1  1
 17 16  1  6
 18 17  1  6
  8 19  2  0
 19  3  1  0
 15 10  1  0
 18 10  1  0
M  END
$$$$
