_rank20
     RDKit          3D

 19 21  0  0  0  0  0  0  0  0999 V2000
   24.9017    0.5985   -5.8649 N   0  0  0  0  0  0  0  0  0  0  0  0
   25.4023    0.2740   -6.8366 C   0  0  0  0  0  0  0  0  0  0  0  0
   26.0394   -0.1621   -8.0708 C   0  0  0  0  0  0  0  0  0  0  0  0
   27.3929   -0.1683   -8.2282 C   0  0  0  0  0  0  0  0  0  0  0  0
   27.9357   -0.5854   -9.4019 C   0  0  0  0  0  0  0  0  0  0  0  0
   29.3004   -0.5794   -9.5276 F   0  0  0  0  0  0  0  0  0  0  0  0
   27.1267   -1.0045  -10.4408 C   0  0  0  0  0  0  0  0  0  0  0  0
   25.7340   -1.0176  -10.3310 C   0  0  0  0  0  0  0  0  0  0  0  0
   24.9286   -1.4440  -11.3869 N   0  0  0  0  0  0  0  0  0  0  0  0
   23.5281   -1.2113  -11.5361 C   0  0  1  0  0  0  0  0  0  0  0  0
   22.7807   -2.3511  -10.9264 C   0  0  0  0  0  0  0  0  0  0  0  0
   22.0412   -1.9524   -9.6396 C   0  0  0  0  0  0  0  0  0  0  0  0
   20.9981   -0.9199   -9.8928 C   0  0  0  0  0  0  0  0  0  0  0  0
   21.5863    0.1670  -10.7322 C   0  0  0  0  0  0  0  0  0  0  0  0
   23.0948    0.0515  -10.7769 C   0  0  2  0  0  0  0  0  0  0  0  0
   23.5792    1.1941  -11.6498 C   0  0  0  0  0  0  0  0  0  0  0  0
   23.4114    0.6447  -13.0447 C   0  0  0  0  0  0  0  0  0  0  0  0
   23.1124   -0.8334  -12.9258 C   0  0  0  0  0  0  0  0  0  0  0  0
   25.2511   -0.5835   -9.1179 C   0  0  0  0  0  0  0  0  0  0  0  0
  1  2  3  0
  2  3  1  0
  3  4  2  0
  4  5  1  0
  5  6  1  0
  5  7  2  0
  7  8  1  0
  8  9  1  0
 10  9  1  6
 11 10  1  1
 12 11  1  1
 13 12  1  6
 14 13  1  6
 15 14  1  6
 16 15  1  1
 17 16  1  6
 18 17  1  6
  8 19  2  0
 19  3  1  0
 15 10  1  0
 18 10  1  0
M  END
$$$$
