_rank5
     RDKit          3D

 19 21  0  0  0  0  0  0  0  0999 V2000
   18.7377    1.9362   -8.8001 N   0  0  0  0  0  0  0  0  0  0  0  0
   19.4566    1.1977   -9.2877 C   0  0  0  0  0  0  0  0  0  0  0  0
   20.3884    0.2719   -9.9154 C   0  0  0  0  0  0  0  0  0  0  0  0
   20.0387   -1.0046  -10.2395 C   0  0  0  0  0  0  0  0  0  0  0  0
   20.9479   -1.8276  -10.8243 C   0  0  0  0  0  0  0  0  0  0  0  0
   20.5640   -3.1054  -11.1376 F   0  0  0  0  0  0  0  0  0  0  0  0
   22.2277   -1.3819  -11.0945 C   0  0  0  0  0  0  0  0  0  0  0  0
   22.6369   -0.0832  -10.7824 C   0  0  0  0  0  0  0  0  0  0  0  0
   23.9315    0.3546  -11.0614 N   0  0  0  0  0  0  0  0  0  0  0  0
   25.1476   -0.2731  -10.6555 C   0  0  1  0  0  0  0  0  0  0  0  0
   26.1204   -0.2201  -11.7871 C   0  0  0  0  0  0  0  0  0  0  0  0
   27.2928    0.7354  -11.5148 C   0  0  0  0  0  0  0  0  0  0  0  0
   28.1078    0.2996  -10.3469 C   0  0  0  0  0  0  0  0  0  0  0  0
   27.1922   -0.0320   -9.2139 C   0  0  0  0  0  0  0  0  0  0  0  0
   25.7954    0.4835   -9.4865 C   0  0  2  0  0  0  0  0  0  0  0  0
   24.9594    0.0923   -8.2822 C   0  0  0  0  0  0  0  0  0  0  0  0
   24.5825   -1.3365   -8.5858 C   0  0  0  0  0  0  0  0  0  0  0  0
   24.9630   -1.6191  -10.0223 C   0  0  0  0  0  0  0  0  0  0  0  0
   21.6683    0.6963  -10.1930 C   0  0  0  0  0  0  0  0  0  0  0  0
  1  2  3  0
  2  3  1  0
  3  4  2  0
  4  5  1  0
  5  6  1  0
  5  7  2  0
  7  8  1  0
  8  9  1  0
 10  9  1  6
 11 10  1  1
 12 11  1  1
 13 12  1  6
 14 13  1  6
 15 14  1  1
 16 15  1  1
 17 16  1  6
 18 17  1  6
  8 19  2  0
 19  3  1  0
 15 10  1  0
 18 10  1  0
M  END
$$$$
