_rank13
     RDKit          3D

 19 21  0  0  0  0  0  0  0  0999 V2000
   26.3297    0.1163   -6.7030 N   0  0  0  0  0  0  0  0  0  0  0  0
   26.2045   -0.0457   -7.8247 C   0  0  0  0  0  0  0  0  0  0  0  0
   26.0656   -0.2616   -9.2576 C   0  0  0  0  0  0  0  0  0  0  0  0
   27.1429   -0.3750  -10.0843 C   0  0  0  0  0  0  0  0  0  0  0  0
   26.9566   -0.5760  -11.4151 C   0  0  0  0  0  0  0  0  0  0  0  0
   28.0613   -0.6857  -12.2188 F   0  0  0  0  0  0  0  0  0  0  0  0
   25.6818   -0.6669  -11.9404 C   0  0  0  0  0  0  0  0  0  0  0  0
   24.5442   -0.5575  -11.1369 C   0  0  0  0  0  0  0  0  0  0  0  0
   23.2628   -0.6520  -11.6795 N   0  0  0  0  0  0  0  0  0  0  0  0
   22.1031   -1.1793  -11.0354 C   0  0  1  0  0  0  0  0  0  0  0  0
   22.3670   -1.2777   -9.5690 C   0  0  0  0  0  0  0  0  0  0  0  0
   21.5518   -0.2630   -8.7520 C   0  0  0  0  0  0  0  0  0  0  0  0
   20.0859   -0.4930   -8.8799 C   0  0  0  0  0  0  0  0  0  0  0  0
   19.7473   -0.6681  -10.3245 C   0  0  0  0  0  0  0  0  0  0  0  0
   20.9029   -0.2356  -11.2010 C   0  0  2  0  0  0  0  0  0  0  0  0
   20.4516   -0.4567  -12.6327 C   0  0  0  0  0  0  0  0  0  0  0  0
   20.7273   -1.9241  -12.8482 C   0  0  0  0  0  0  0  0  0  0  0  0
   21.5512   -2.4156  -11.6787 C   0  0  0  0  0  0  0  0  0  0  0  0
   24.8040   -0.3550   -9.8009 C   0  0  0  0  0  0  0  0  0  0  0  0
  1  2  3  0
  2  3  1  0
  3  4  2  0
  4  5  1  0
  5  6  1  0
  5  7  2  0
  7  8  1  0
  8  9  1  0
 10  9  1  6
 11 10  1  1
 12 11  1  1
 13 12  1  6
 14 13  1  6
 15 14  1  1
 16 15  1  1
 17 16  1  6
 18 17  1  6
  8 19  2  0
 19  3  1  0
 15 10  1  0
 18 10  1  0
M  END
$$$$
