_rank3
     RDKit          3D

 19 21  0  0  0  0  0  0  0  0999 V2000
   20.3686   -3.4871   -8.1413 N   0  0  0  0  0  0  0  0  0  0  0  0
   20.6526   -2.5877   -8.7819 C   0  0  0  0  0  0  0  0  0  0  0  0
   21.0333   -1.4358   -9.5866 C   0  0  0  0  0  0  0  0  0  0  0  0
   20.1474   -0.4549   -9.9180 C   0  0  0  0  0  0  0  0  0  0  0  0
   20.5557    0.5992  -10.6719 C   0  0  0  0  0  0  0  0  0  0  0  0
   19.6398    1.5686  -10.9875 F   0  0  0  0  0  0  0  0  0  0  0  0
   21.8642    0.6868  -11.1073 C   0  0  0  0  0  0  0  0  0  0  0  0
   22.8116   -0.2914  -10.7956 C   0  0  0  0  0  0  0  0  0  0  0  0
   24.1297   -0.1905  -11.2406 N   0  0  0  0  0  0  0  0  0  0  0  0
   25.2394    0.3218  -10.5032 C   0  0  1  0  0  0  0  0  0  0  0  0
   24.9667    0.1600   -9.0440 C   0  0  0  0  0  0  0  0  0  0  0  0
   25.8648   -0.9009   -8.3886 C   0  0  0  0  0  0  0  0  0  0  0  0
   27.3059   -0.5308   -8.4564 C   0  0  0  0  0  0  0  0  0  0  0  0
   27.6296   -0.0973   -9.8490 C   0  0  0  0  0  0  0  0  0  0  0  0
   26.5160   -0.4786  -10.8005 C   0  0  2  0  0  0  0  0  0  0  0  0
   26.9482    0.0075  -12.1713 C   0  0  0  0  0  0  0  0  0  0  0  0
   26.5484    1.4620  -12.1526 C   0  0  0  0  0  0  0  0  0  0  0  0
   25.6844    1.6876  -10.9316 C   0  0  0  0  0  0  0  0  0  0  0  0
   22.3322   -1.3296  -10.0304 C   0  0  0  0  0  0  0  0  0  0  0  0
  1  2  3  0
  2  3  1  0
  3  4  2  0
  4  5  1  0
  5  6  1  0
  5  7  2  0
  7  8  1  0
  8  9  1  0
 10  9  1  6
 11 10  1  1
 12 11  1  1
 13 12  1  6
 14 13  1  6
 15 14  1  1
 16 15  1  1
 17 16  1  6
 18 17  1  6
  8 19  2  0
 19  3  1  0
 15 10  1  0
 18 10  1  0
M  END
$$$$
