_rank1
     RDKit          3D

 19 21  0  0  0  0  0  0  0  0999 V2000
   19.3212    2.4087   -9.5686 N   0  0  0  0  0  0  0  0  0  0  0  0
   19.8460    1.4602   -9.9223 C   0  0  0  0  0  0  0  0  0  0  0  0
   20.5065    0.2379  -10.3568 C   0  0  0  0  0  0  0  0  0  0  0  0
   19.8320   -0.7758  -10.9686 C   0  0  0  0  0  0  0  0  0  0  0  0
   20.4977   -1.8958  -11.3542 C   0  0  0  0  0  0  0  0  0  0  0  0
   19.7897   -2.8965  -11.9670 F   0  0  0  0  0  0  0  0  0  0  0  0
   21.8560   -2.0177  -11.1314 C   0  0  0  0  0  0  0  0  0  0  0  0
   22.5941   -1.0083  -10.5084 C   0  0  0  0  0  0  0  0  0  0  0  0
   23.9651   -1.1435  -10.2903 N   0  0  0  0  0  0  0  0  0  0  0  0
   24.9044   -0.0855  -10.1002 C   0  0  1  0  0  0  0  0  0  0  0  0
   25.1271    0.1062   -8.6361 C   0  0  0  0  0  0  0  0  0  0  0  0
   26.5297   -0.3344   -8.1887 C   0  0  0  0  0  0  0  0  0  0  0  0
   27.6008    0.4743   -8.8344 C   0  0  0  0  0  0  0  0  0  0  0  0
   27.3246    0.5619  -10.3000 C   0  0  0  0  0  0  0  0  0  0  0  0
   26.2691   -0.4439  -10.7065 C   0  0  2  0  0  0  0  0  0  0  0  0
   26.0702   -0.2656  -12.2001 C   0  0  0  0  0  0  0  0  0  0  0  0
   25.1115    0.8969  -12.2741 C   0  0  0  0  0  0  0  0  0  0  0  0
   24.5946    1.1586  -10.8767 C   0  0  0  0  0  0  0  0  0  0  0  0
   21.8594    0.0966  -10.1441 C   0  0  0  0  0  0  0  0  0  0  0  0
  1  2  3  0
  2  3  1  0
  3  4  2  0
  4  5  1  0
  5  6  1  0
  5  7  2  0
  7  8  1  0
  8  9  1  0
 10  9  1  1
 11 10  1  1
 12 11  1  1
 13 12  1  6
 14 13  1  6
 15 14  1  1
 16 15  1  1
 17 16  1  6
 18 17  1  6
  8 19  2  0
 19  3  1  0
 15 10  1  0
 18 10  1  0
M  END
$$$$
