_rank3
     RDKit          3D

 25 27  0  0  0  0  0  0  0  0999 V2000
   28.5319    1.1325   -8.7851 C   0  0  0  0  0  0  0  0  0  0  0  0
   27.5612   -0.3544   -8.6209 S   0  0  1  0  0  6  0  0  0  0  0  0
   28.4394   -1.4977   -9.0687 O   0  0  0  0  0  0  0  0  0  0  0  0
   27.1754   -0.5674   -7.2050 O   0  0  0  0  0  0  0  0  0  0  0  0
   26.1211   -0.2670   -9.6056 C   0  0  0  0  0  0  0  0  0  0  0  0
   24.8712   -0.4738   -9.0280 C   0  0  0  0  0  0  0  0  0  0  0  0
   23.7202   -0.4038   -9.7790 C   0  0  0  0  0  0  0  0  0  0  0  0
   23.7899   -0.1205  -11.1511 C   0  0  0  0  0  0  0  0  0  0  0  0
   22.5880   -0.0638  -11.8577 O   0  0  0  0  0  0  0  0  0  0  0  0
   21.3924   -0.3309  -11.2117 C   0  0  0  0  0  0  0  0  0  0  0  0
   20.8667   -1.6290  -11.1932 C   0  0  0  0  0  0  0  0  0  0  0  0
   19.6909   -1.9084  -10.5588 C   0  0  0  0  0  0  0  0  0  0  0  0
   19.1891   -3.1679  -10.5457 F   0  0  0  0  0  0  0  0  0  0  0  0
   18.9688   -0.9393   -9.9114 C   0  0  0  0  0  0  0  0  0  0  0  0
   19.4535    0.3507   -9.9075 C   0  0  0  0  0  0  0  0  0  0  0  0
   18.7044    1.3777   -9.2310 C   0  0  0  0  0  0  0  0  0  0  0  0
   18.1041    2.2158   -8.7021 N   0  0  0  0  0  0  0  0  0  0  0  0
   20.6366    0.6129  -10.5501 C   0  0  0  0  0  0  0  0  0  0  0  0
   25.0089    0.0862  -11.7459 C   0  0  0  0  0  0  0  0  0  0  0  0
   26.1555    0.0071  -10.9476 C   0  0  0  0  0  0  0  0  0  0  0  0
   27.3604    0.2676  -11.8145 C   0  0  2  0  0  0  0  0  0  0  0  0
   28.3763    0.9073  -11.1588 O   0  0  0  0  0  0  0  0  0  0  0  0
   26.7244    1.1735  -12.8845 C   0  0  0  0  0  0  0  0  0  0  0  0
   25.4477    0.3643  -13.1337 C   0  0  1  0  0  0  0  0  0  0  0  0
   25.8732   -0.8593  -13.6691 F   0  0  0  0  0  0  0  0  0  0  0  0
  1  2  1  1
  2  3  2  0
  2  4  2  0
  2  5  1  6
  5  6  2  0
  6  7  1  0
  7  8  2  0
  8  9  1  0
  9 10  1  0
 10 11  2  0
 11 12  1  0
 12 13  1  0
 12 14  2  0
 14 15  1  0
 15 16  1  0
 16 17  3  0
 15 18  2  0
  8 19  1  0
 19 20  2  0
 20 21  1  0
 21 22  1  1
 23 21  1  1
 23 24  1  0
 24 25  1  6
 20  5  1  0
 18 10  1  0
 24 19  1  0
M  END
$$$$
