_rank14
     RDKit          3D

 25 27  0  0  0  0  0  0  0  0999 V2000
   28.3587   -1.6423   -8.7701 C   0  0  0  0  0  0  0  0  0  0  0  0
   27.3707   -0.2023   -8.4086 S   0  0  1  0  0  6  0  0  0  0  0  0
   26.9835   -0.2961   -6.9525 O   0  0  0  0  0  0  0  0  0  0  0  0
   28.1612    1.0344   -8.6196 O   0  0  0  0  0  0  0  0  0  0  0  0
   25.9466   -0.1576   -9.4189 C   0  0  0  0  0  0  0  0  0  0  0  0
   24.6879   -0.3439   -8.8537 C   0  0  0  0  0  0  0  0  0  0  0  0
   23.5490   -0.3067   -9.6253 C   0  0  0  0  0  0  0  0  0  0  0  0
   23.6404   -0.0785  -11.0063 C   0  0  0  0  0  0  0  0  0  0  0  0
   22.4499   -0.0529  -11.7338 O   0  0  0  0  0  0  0  0  0  0  0  0
   21.2550   -0.3845  -11.1172 C   0  0  0  0  0  0  0  0  0  0  0  0
   20.6017    0.5356  -10.2874 C   0  0  0  0  0  0  0  0  0  0  0  0
   19.4224    0.2245   -9.6747 C   0  0  0  0  0  0  0  0  0  0  0  0
   18.7966    1.1211   -8.8730 F   0  0  0  0  0  0  0  0  0  0  0  0
   18.8206   -0.9965   -9.8389 C   0  0  0  0  0  0  0  0  0  0  0  0
   19.4329   -1.9289  -10.6481 C   0  0  0  0  0  0  0  0  0  0  0  0
   18.8110   -3.2149  -10.8286 C   0  0  0  0  0  0  0  0  0  0  0  0
   18.2934   -4.2422  -10.9681 N   0  0  0  0  0  0  0  0  0  0  0  0
   20.6176   -1.5987  -11.2556 C   0  0  0  0  0  0  0  0  0  0  0  0
   24.8684    0.1070  -11.5893 C   0  0  0  0  0  0  0  0  0  0  0  0
   26.0021    0.0625  -10.7702 C   0  0  0  0  0  0  0  0  0  0  0  0
   27.2205    0.2907  -11.6274 C   0  0  2  0  0  0  0  0  0  0  0  0
   28.2246    0.9585  -10.9816 O   0  0  0  0  0  0  0  0  0  0  0  0
   26.6003    1.1516  -12.7429 C   0  0  0  0  0  0  0  0  0  0  0  0
   25.3291    0.3302  -12.9799 C   0  0  1  0  0  0  0  0  0  0  0  0
   25.7652   -0.9129  -13.4589 F   0  0  0  0  0  0  0  0  0  0  0  0
  1  2  1  1
  2  3  2  0
  2  4  2  0
  2  5  1  6
  5  6  2  0
  6  7  1  0
  7  8  2  0
  8  9  1  0
  9 10  1  0
 10 11  2  0
 11 12  1  0
 12 13  1  0
 12 14  2  0
 14 15  1  0
 15 16  1  0
 16 17  3  0
 15 18  2  0
  8 19  1  0
 19 20  2  0
 20 21  1  0
 21 22  1  1
 23 21  1  1
 23 24  1  0
 24 25  1  1
 20  5  1  0
 18 10  1  0
 24 19  1  0
M  END
$$$$
