_rank20
     RDKit          3D

 25 27  0  0  0  0  0  0  0  0999 V2000
   17.9406   -2.8825  -11.3724 C   0  0  0  0  0  0  0  0  0  0  0  0
   19.0941   -3.0831  -10.0272 S   0  0  1  0  0  6  0  0  0  0  0  0
   18.3216   -2.8404   -8.7532 O   0  0  0  0  0  0  0  0  0  0  0  0
   19.6338   -4.4642  -10.0094 O   0  0  0  0  0  0  0  0  0  0  0  0
   20.4145   -1.9483  -10.1680 C   0  0  0  0  0  0  0  0  0  0  0  0
   21.7276   -2.4104  -10.1955 C   0  0  0  0  0  0  0  0  0  0  0  0
   22.7862   -1.5389  -10.3126 C   0  0  0  0  0  0  0  0  0  0  0  0
   22.5555   -0.1585  -10.4069 C   0  0  0  0  0  0  0  0  0  0  0  0
   23.6701    0.6730  -10.5231 O   0  0  0  0  0  0  0  0  0  0  0  0
   24.9433    0.1474  -10.3799 C   0  0  0  0  0  0  0  0  0  0  0  0
   25.6111   -0.4121  -11.4767 C   0  0  0  0  0  0  0  0  0  0  0  0
   26.8670   -0.9318  -11.3520 C   0  0  0  0  0  0  0  0  0  0  0  0
   27.5062   -1.4715  -12.4190 F   0  0  0  0  0  0  0  0  0  0  0  0
   27.5351   -0.9330  -10.1548 C   0  0  0  0  0  0  0  0  0  0  0  0
   26.9110   -0.3912   -9.0520 C   0  0  0  0  0  0  0  0  0  0  0  0
   27.6021   -0.3865   -7.7887 C   0  0  0  0  0  0  0  0  0  0  0  0
   28.1507   -0.4002   -6.7682 N   0  0  0  0  0  0  0  0  0  0  0  0
   25.6490    0.1265   -9.1960 C   0  0  0  0  0  0  0  0  0  0  0  0
   21.2714    0.3239  -10.3810 C   0  0  0  0  0  0  0  0  0  0  0  0
   20.2227   -0.5948  -10.2615 C   0  0  0  0  0  0  0  0  0  0  0  0
   18.9207    0.1640  -10.2554 C   0  0  2  0  0  0  0  0  0  0  0  0
   17.8893   -0.5174  -10.8411 O   0  0  0  0  0  0  0  0  0  0  0  0
   19.3277    1.3924  -11.0894 C   0  0  0  0  0  0  0  0  0  0  0  0
   20.6760    1.6803  -10.4218 C   0  0  1  0  0  0  0  0  0  0  0  0
   20.3767    2.0233   -9.0960 F   0  0  0  0  0  0  0  0  0  0  0  0
  1  2  1  1
  2  3  2  0
  2  4  2  0
  2  5  1  6
  5  6  2  0
  6  7  1  0
  7  8  2  0
  8  9  1  0
  9 10  1  0
 10 11  2  0
 11 12  1  0
 12 13  1  0
 12 14  2  0
 14 15  1  0
 15 16  1  0
 16 17  3  0
 15 18  2  0
  8 19  1  0
 19 20  2  0
 20 21  1  0
 21 22  1  6
 23 21  1  1
 23 24  1  0
 24 25  1  1
 20  5  1  0
 18 10  1  0
 24 19  1  0
M  END
$$$$
