_rank18
     RDKit          3D

 25 27  0  0  0  0  0  0  0  0999 V2000
   27.4540    1.9421   -8.5448 C   0  0  0  0  0  0  0  0  0  0  0  0
   27.4557    0.1782   -8.8079 S   0  0  1  0  0  6  0  0  0  0  0  0
   28.7286   -0.1485   -9.5508 O   0  0  0  0  0  0  0  0  0  0  0  0
   27.4560   -0.5390   -7.5101 O   0  0  0  0  0  0  0  0  0  0  0  0
   26.0610   -0.3114   -9.7387 C   0  0  0  0  0  0  0  0  0  0  0  0
   25.0216   -1.0020   -9.1213 C   0  0  0  0  0  0  0  0  0  0  0  0
   23.9083   -1.3935   -9.8293 C   0  0  0  0  0  0  0  0  0  0  0  0
   23.8034   -1.0997  -11.1969 C   0  0  0  0  0  0  0  0  0  0  0  0
   22.6507   -1.5238  -11.8589 O   0  0  0  0  0  0  0  0  0  0  0  0
   21.4276   -0.9489  -11.5560 C   0  0  0  0  0  0  0  0  0  0  0  0
   20.6297   -0.3968  -12.5661 C   0  0  0  0  0  0  0  0  0  0  0  0
   19.4211    0.1711  -12.2837 C   0  0  0  0  0  0  0  0  0  0  0  0
   18.6550    0.7033  -13.2676 F   0  0  0  0  0  0  0  0  0  0  0  0
   18.9292    0.2299  -11.0053 C   0  0  0  0  0  0  0  0  0  0  0  0
   19.6853   -0.3028   -9.9837 C   0  0  0  0  0  0  0  0  0  0  0  0
   19.1798   -0.2473   -8.6366 C   0  0  0  0  0  0  0  0  0  0  0  0
   18.7578   -0.1920   -7.5589 N   0  0  0  0  0  0  0  0  0  0  0  0
   20.8973   -0.8694  -10.2862 C   0  0  0  0  0  0  0  0  0  0  0  0
   24.8139   -0.4214  -11.8304 C   0  0  0  0  0  0  0  0  0  0  0  0
   25.9286   -0.0403  -11.0753 C   0  0  0  0  0  0  0  0  0  0  0  0
   26.8937    0.6829  -11.9790 C   0  0  2  0  0  0  0  0  0  0  0  0
   27.5966    1.6717  -11.3470 O   0  0  0  0  0  0  0  0  0  0  0  0
   25.9064    1.2648  -13.0070 C   0  0  0  0  0  0  0  0  0  0  0  0
   25.0486    0.0149  -13.2270 C   0  0  1  0  0  0  0  0  0  0  0  0
   25.9040   -0.9352  -13.8020 F   0  0  0  0  0  0  0  0  0  0  0  0
  1  2  1  1
  2  3  2  0
  2  4  2  0
  2  5  1  6
  5  6  2  0
  6  7  1  0
  7  8  2  0
  8  9  1  0
  9 10  1  0
 10 11  2  0
 11 12  1  0
 12 13  1  0
 12 14  2  0
 14 15  1  0
 15 16  1  0
 16 17  3  0
 15 18  2  0
  8 19  1  0
 19 20  2  0
 20 21  1  0
 21 22  1  1
 23 21  1  1
 23 24  1  0
 24 25  1  6
 20  5  1  0
 18 10  1  0
 24 19  1  0
M  END
$$$$
