_rank4
     RDKit          3D

 25 27  0  0  0  0  0  0  0  0999 V2000
   28.9923   -0.5662   -9.3599 C   0  0  0  0  0  0  0  0  0  0  0  0
   27.5472   -0.0935   -8.4279 S   0  0  1  0  0  6  0  0  0  0  0  0
   27.4183   -1.0833   -7.2954 O   0  0  0  0  0  0  0  0  0  0  0  0
   27.7173    1.2671   -7.8633 O   0  0  0  0  0  0  0  0  0  0  0  0
   26.1209   -0.1271   -9.4355 C   0  0  0  0  0  0  0  0  0  0  0  0
   24.8808   -0.4198   -8.8742 C   0  0  0  0  0  0  0  0  0  0  0  0
   23.7400   -0.4463   -9.6436 C   0  0  0  0  0  0  0  0  0  0  0  0
   23.8107   -0.1762  -11.0183 C   0  0  0  0  0  0  0  0  0  0  0  0
   22.6195   -0.2191  -11.7439 O   0  0  0  0  0  0  0  0  0  0  0  0
   21.4219   -0.4661  -11.0937 C   0  0  0  0  0  0  0  0  0  0  0  0
   20.8363   -1.7378  -11.1371 C   0  0  0  0  0  0  0  0  0  0  0  0
   19.6577   -1.9973  -10.4995 C   0  0  0  0  0  0  0  0  0  0  0  0
   19.0976   -3.2312  -10.5467 F   0  0  0  0  0  0  0  0  0  0  0  0
   18.9909   -1.0332   -9.7885 C   0  0  0  0  0  0  0  0  0  0  0  0
   19.5355    0.2310   -9.7224 C   0  0  0  0  0  0  0  0  0  0  0  0
   18.8448    1.2525   -8.9787 C   0  0  0  0  0  0  0  0  0  0  0  0
   18.2939    2.0875   -8.3941 N   0  0  0  0  0  0  0  0  0  0  0  0
   20.7205    0.4736  -10.3693 C   0  0  0  0  0  0  0  0  0  0  0  0
   25.0202    0.1139  -11.5973 C   0  0  0  0  0  0  0  0  0  0  0  0
   26.1564    0.1315  -10.7806 C   0  0  0  0  0  0  0  0  0  0  0  0
   27.3523    0.4705  -11.6326 C   0  0  2  0  0  0  0  0  0  0  0  0
   28.3067    1.1931  -10.9705 O   0  0  0  0  0  0  0  0  0  0  0  0
   26.6677    1.3122  -12.7248 C   0  0  0  0  0  0  0  0  0  0  0  0
   25.4594    0.4062  -12.9820 C   0  0  1  0  0  0  0  0  0  0  0  0
   25.9841   -0.7887  -13.4936 F   0  0  0  0  0  0  0  0  0  0  0  0
  1  2  1  1
  2  3  2  0
  2  4  2  0
  2  5  1  6
  5  6  2  0
  6  7  1  0
  7  8  2  0
  8  9  1  0
  9 10  1  0
 10 11  2  0
 11 12  1  0
 12 13  1  0
 12 14  2  0
 14 15  1  0
 15 16  1  0
 16 17  3  0
 15 18  2  0
  8 19  1  0
 19 20  2  0
 20 21  1  0
 21 22  1  1
 23 21  1  1
 23 24  1  0
 24 25  1  1
 20  5  1  0
 18 10  1  0
 24 19  1  0
M  END
$$$$
