_rank8
     RDKit          3D

 25 27  0  0  0  0  0  0  0  0999 V2000
   28.6997    0.5983   -9.3172 C   0  0  0  0  0  0  0  0  0  0  0  0
   27.4061   -0.4042   -8.6087 S   0  0  1  0  0  6  0  0  0  0  0  0
   27.9461   -1.8113   -8.5217 O   0  0  0  0  0  0  0  0  0  0  0  0
   27.0718    0.0702   -7.2442 O   0  0  0  0  0  0  0  0  0  0  0  0
   25.9714   -0.3598   -9.6040 C   0  0  0  0  0  0  0  0  0  0  0  0
   24.7364   -0.6989   -9.0578 C   0  0  0  0  0  0  0  0  0  0  0  0
   23.5893   -0.6657   -9.8174 C   0  0  0  0  0  0  0  0  0  0  0  0
   23.6481   -0.2862  -11.1665 C   0  0  0  0  0  0  0  0  0  0  0  0
   22.4510   -0.2731  -11.8834 O   0  0  0  0  0  0  0  0  0  0  0  0
   21.2479   -0.4637  -11.2244 C   0  0  0  0  0  0  0  0  0  0  0  0
   20.6360    0.5928  -10.5379 C   0  0  0  0  0  0  0  0  0  0  0  0
   19.4492    0.4213   -9.8859 C   0  0  0  0  0  0  0  0  0  0  0  0
   18.8637    1.4494   -9.2237 F   0  0  0  0  0  0  0  0  0  0  0  0
   18.7993   -0.7858   -9.8694 C   0  0  0  0  0  0  0  0  0  0  0  0
   19.3700   -1.8499  -10.5338 C   0  0  0  0  0  0  0  0  0  0  0  0
   18.6973   -3.1230  -10.5240 C   0  0  0  0  0  0  0  0  0  0  0  0
   18.1389   -4.1383  -10.5147 N   0  0  0  0  0  0  0  0  0  0  0  0
   20.5628   -1.6590  -11.1835 C   0  0  0  0  0  0  0  0  0  0  0  0
   24.8524    0.0516  -11.7303 C   0  0  0  0  0  0  0  0  0  0  0  0
   25.9954    0.0059  -10.9243 C   0  0  0  0  0  0  0  0  0  0  0  0
   27.1837    0.4144  -11.7562 C   0  0  2  0  0  0  0  0  0  0  0  0
   28.1426    1.0834  -11.0462 O   0  0  0  0  0  0  0  0  0  0  0  0
   26.4889    1.3396  -12.7717 C   0  0  0  0  0  0  0  0  0  0  0  0
   25.2797    0.4549  -13.0908 C   0  0  1  0  0  0  0  0  0  0  0  0
   25.8015   -0.6942  -13.7008 F   0  0  0  0  0  0  0  0  0  0  0  0
  1  2  1  1
  2  3  2  0
  2  4  2  0
  2  5  1  6
  5  6  2  0
  6  7  1  0
  7  8  2  0
  8  9  1  0
  9 10  1  0
 10 11  2  0
 11 12  1  0
 12 13  1  0
 12 14  2  0
 14 15  1  0
 15 16  1  0
 16 17  3  0
 15 18  2  0
  8 19  1  0
 19 20  2  0
 20 21  1  0
 21 22  1  1
 23 21  1  1
 23 24  1  0
 24 25  1  6
 20  5  1  0
 18 10  1  0
 24 19  1  0
M  END
$$$$
