_rank16
     RDKit          3D

 25 27  0  0  0  0  0  0  0  0999 V2000
   27.6822   -1.2100   -7.4840 C   0  0  0  0  0  0  0  0  0  0  0  0
   27.9979   -0.3615   -9.0204 S   0  0  1  0  0  6  0  0  0  0  0  0
   28.6616    0.9470   -8.6652 O   0  0  0  0  0  0  0  0  0  0  0  0
   28.9180   -1.1548   -9.8706 O   0  0  0  0  0  0  0  0  0  0  0  0
   26.5094   -0.0767   -9.8889 C   0  0  0  0  0  0  0  0  0  0  0  0
   25.2880   -0.1932   -9.2306 C   0  0  0  0  0  0  0  0  0  0  0  0
   24.1007    0.0324   -9.8889 C   0  0  0  0  0  0  0  0  0  0  0  0
   24.1036    0.3863  -11.2463 C   0  0  0  0  0  0  0  0  0  0  0  0
   22.8676    0.6011  -11.8572 O   0  0  0  0  0  0  0  0  0  0  0  0
   21.7250    0.0237  -11.3287 C   0  0  0  0  0  0  0  0  0  0  0  0
   21.4534   -1.3352  -11.5325 C   0  0  0  0  0  0  0  0  0  0  0  0
   20.3329   -1.9191  -11.0161 C   0  0  0  0  0  0  0  0  0  0  0  0
   20.0776   -3.2352  -11.2182 F   0  0  0  0  0  0  0  0  0  0  0  0
   19.4218   -1.2103  -10.2764 C   0  0  0  0  0  0  0  0  0  0  0  0
   19.6540    0.1298  -10.0541 C   0  0  0  0  0  0  0  0  0  0  0  0
   18.7045    0.8853   -9.2787 C   0  0  0  0  0  0  0  0  0  0  0  0
   17.9268    1.4801   -8.6591 N   0  0  0  0  0  0  0  0  0  0  0  0
   20.7851    0.6996  -10.5806 C   0  0  0  0  0  0  0  0  0  0  0  0
   25.2930    0.5067  -11.9194 C   0  0  0  0  0  0  0  0  0  0  0  0
   26.4782    0.2698  -11.2142 C   0  0  0  0  0  0  0  0  0  0  0  0
   27.6403    0.4606  -12.1545 C   0  0  2  0  0  0  0  0  0  0  0  0
   28.7591    0.9589  -11.5452 O   0  0  0  0  0  0  0  0  0  0  0  0
   27.0271    1.4848  -13.1268 C   0  0  0  0  0  0  0  0  0  0  0  0
   25.6605    0.8202  -13.3203 C   0  0  1  0  0  0  0  0  0  0  0  0
   25.9210   -0.4062  -13.9472 F   0  0  0  0  0  0  0  0  0  0  0  0
  1  2  1  1
  2  3  2  0
  2  4  2  0
  2  5  1  6
  5  6  2  0
  6  7  1  0
  7  8  2  0
  8  9  1  0
  9 10  1  0
 10 11  2  0
 11 12  1  0
 12 13  1  0
 12 14  2  0
 14 15  1  0
 15 16  1  0
 16 17  3  0
 15 18  2  0
  8 19  1  0
 19 20  2  0
 20 21  1  0
 21 22  1  1
 23 21  1  1
 23 24  1  0
 24 25  1  6
 20  5  1  0
 18 10  1  0
 24 19  1  0
M  END
$$$$
