_rank5
     RDKit          3D

 25 27  0  0  0  0  0  0  0  0999 V2000
   28.4114    0.9866   -8.3137 C   0  0  0  0  0  0  0  0  0  0  0  0
   27.6647   -0.6080   -8.5965 S   0  0  1  0  0  6  0  0  0  0  0  0
   28.6964   -1.4505   -9.3070 O   0  0  0  0  0  0  0  0  0  0  0  0
   27.3183   -1.2536   -7.3073 O   0  0  0  0  0  0  0  0  0  0  0  0
   26.2236   -0.4539   -9.5715 C   0  0  0  0  0  0  0  0  0  0  0  0
   24.9756   -0.7159   -9.0126 C   0  0  0  0  0  0  0  0  0  0  0  0
   23.8237   -0.5955   -9.7559 C   0  0  0  0  0  0  0  0  0  0  0  0
   23.8908   -0.2034  -11.1011 C   0  0  0  0  0  0  0  0  0  0  0  0
   22.6882   -0.1003  -11.8013 O   0  0  0  0  0  0  0  0  0  0  0  0
   21.5011   -0.4793  -11.1970 C   0  0  0  0  0  0  0  0  0  0  0  0
   21.0502   -1.8029  -11.2793 C   0  0  0  0  0  0  0  0  0  0  0  0
   19.8837   -2.1923  -10.6871 C   0  0  0  0  0  0  0  0  0  0  0  0
   19.4545   -3.4756  -10.7717 F   0  0  0  0  0  0  0  0  0  0  0  0
   19.0986   -1.3138   -9.9859 C   0  0  0  0  0  0  0  0  0  0  0  0
   19.5087   -0.0022   -9.8825 C   0  0  0  0  0  0  0  0  0  0  0  0
   18.6929    0.9302   -9.1487 C   0  0  0  0  0  0  0  0  0  0  0  0
   18.0490    1.6796   -8.5433 N   0  0  0  0  0  0  0  0  0  0  0  0
   20.6836    0.3711  -10.4840 C   0  0  0  0  0  0  0  0  0  0  0  0
   25.1078    0.0596  -11.6772 C   0  0  0  0  0  0  0  0  0  0  0  0
   26.2553   -0.0736  -10.8875 C   0  0  0  0  0  0  0  0  0  0  0  0
   27.4578    0.2645  -11.7306 C   0  0  2  0  0  0  0  0  0  0  0  0
   28.4688    0.8580  -11.0258 O   0  0  0  0  0  0  0  0  0  0  0  0
   26.8142    1.2475  -12.7253 C   0  0  0  0  0  0  0  0  0  0  0  0
   25.5439    0.4507  -13.0384 C   0  0  1  0  0  0  0  0  0  0  0  0
   25.9789   -0.7230  -13.6693 F   0  0  0  0  0  0  0  0  0  0  0  0
  1  2  1  1
  2  3  2  0
  2  4  2  0
  2  5  1  6
  5  6  2  0
  6  7  1  0
  7  8  2  0
  8  9  1  0
  9 10  1  0
 10 11  2  0
 11 12  1  0
 12 13  1  0
 12 14  2  0
 14 15  1  0
 15 16  1  0
 16 17  3  0
 15 18  2  0
  8 19  1  0
 19 20  2  0
 20 21  1  0
 21 22  1  1
 23 21  1  1
 23 24  1  0
 24 25  1  6
 20  5  1  0
 18 10  1  0
 24 19  1  0
M  END
$$$$
