_rank13
     RDKit          3D

 25 27  0  0  0  0  0  0  0  0999 V2000
   28.8731   -1.4879   -9.4085 C   0  0  0  0  0  0  0  0  0  0  0  0
   27.6844   -0.3439   -8.7314 S   0  0  1  0  0  6  0  0  0  0  0  0
   27.3636   -0.8258   -7.3372 O   0  0  0  0  0  0  0  0  0  0  0  0
   28.2647    1.0183   -8.6501 O   0  0  0  0  0  0  0  0  0  0  0  0
   26.2390   -0.2990   -9.7111 C   0  0  0  0  0  0  0  0  0  0  0  0
   25.0051   -0.6043   -9.1429 C   0  0  0  0  0  0  0  0  0  0  0  0
   23.8499   -0.5700   -9.8900 C   0  0  0  0  0  0  0  0  0  0  0  0
   23.8991   -0.2237  -11.2485 C   0  0  0  0  0  0  0  0  0  0  0  0
   22.6940   -0.2075  -11.9518 O   0  0  0  0  0  0  0  0  0  0  0  0
   21.5104   -0.5193  -11.3036 C   0  0  0  0  0  0  0  0  0  0  0  0
   21.0059   -1.8256  -11.3301 C   0  0  0  0  0  0  0  0  0  0  0  0
   19.8422   -2.1489  -10.6942 C   0  0  0  0  0  0  0  0  0  0  0  0
   19.3609   -3.4160  -10.7249 F   0  0  0  0  0  0  0  0  0  0  0  0
   19.1122   -1.2178  -10.0015 C   0  0  0  0  0  0  0  0  0  0  0  0
   19.5761    0.0789   -9.9525 C   0  0  0  0  0  0  0  0  0  0  0  0
   18.8185    1.0663   -9.2282 C   0  0  0  0  0  0  0  0  0  0  0  0
   18.2140    1.8522   -8.6285 N   0  0  0  0  0  0  0  0  0  0  0  0
   20.7473    0.3855  -10.5973 C   0  0  0  0  0  0  0  0  0  0  0  0
   25.1021    0.0805  -11.8338 C   0  0  0  0  0  0  0  0  0  0  0  0
   26.2535    0.0347  -11.0399 C   0  0  0  0  0  0  0  0  0  0  0  0
   27.4385    0.4034  -11.8948 C   0  0  2  0  0  0  0  0  0  0  0  0
   28.4166    1.0730  -11.2120 O   0  0  0  0  0  0  0  0  0  0  0  0
   26.7472    1.3158  -12.9242 C   0  0  0  0  0  0  0  0  0  0  0  0
   25.5199    0.4441  -13.2083 C   0  0  1  0  0  0  0  0  0  0  0  0
   26.0155   -0.7277  -13.7965 F   0  0  0  0  0  0  0  0  0  0  0  0
  1  2  1  1
  2  3  2  0
  2  4  2  0
  2  5  1  6
  5  6  2  0
  6  7  1  0
  7  8  2  0
  8  9  1  0
  9 10  1  0
 10 11  2  0
 11 12  1  0
 12 13  1  0
 12 14  2  0
 14 15  1  0
 15 16  1  0
 16 17  3  0
 15 18  2  0
  8 19  1  0
 19 20  2  0
 20 21  1  0
 21 22  1  1
 23 21  1  1
 23 24  1  0
 24 25  1  6
 20  5  1  0
 18 10  1  0
 24 19  1  0
M  END
$$$$
