_rank2
     RDKit          3D

 25 27  0  0  0  0  0  0  0  0999 V2000
   28.1371    1.0774   -7.9637 C   0  0  0  0  0  0  0  0  0  0  0  0
   27.5243   -0.5336   -8.4216 S   0  0  1  0  0  6  0  0  0  0  0  0
   28.6353   -1.2218   -9.1772 O   0  0  0  0  0  0  0  0  0  0  0  0
   27.1991   -1.3270   -7.2118 O   0  0  0  0  0  0  0  0  0  0  0  0
   26.0990   -0.3938   -9.4217 C   0  0  0  0  0  0  0  0  0  0  0  0
   24.8439   -0.6663   -8.8841 C   0  0  0  0  0  0  0  0  0  0  0  0
   23.7041   -0.5574   -9.6476 C   0  0  0  0  0  0  0  0  0  0  0  0
   23.7910   -0.1666  -10.9920 C   0  0  0  0  0  0  0  0  0  0  0  0
   22.5999   -0.0752  -11.7131 O   0  0  0  0  0  0  0  0  0  0  0  0
   21.3964   -0.3893  -11.1039 C   0  0  0  0  0  0  0  0  0  0  0  0
   20.8799   -1.6893  -11.1740 C   0  0  0  0  0  0  0  0  0  0  0  0
   19.6965   -2.0148  -10.5767 C   0  0  0  0  0  0  0  0  0  0  0  0
   19.2036   -3.2758  -10.6495 F   0  0  0  0  0  0  0  0  0  0  0  0
   18.9575   -1.0922   -9.8822 C   0  0  0  0  0  0  0  0  0  0  0  0
   19.4328    0.1981   -9.7908 C   0  0  0  0  0  0  0  0  0  0  0  0
   18.6660    1.1765   -9.0640 C   0  0  0  0  0  0  0  0  0  0  0  0
   18.0503    1.9528   -8.4632 N   0  0  0  0  0  0  0  0  0  0  0  0
   20.6238    0.5070  -10.3972 C   0  0  0  0  0  0  0  0  0  0  0  0
   25.0155    0.1067  -11.5472 C   0  0  0  0  0  0  0  0  0  0  0  0
   26.1502   -0.0151  -10.7375 C   0  0  0  0  0  0  0  0  0  0  0  0
   27.3641    0.3327  -11.5600 C   0  0  2  0  0  0  0  0  0  0  0  0
   28.3573    0.9363  -10.8387 O   0  0  0  0  0  0  0  0  0  0  0  0
   26.7291    1.3085  -12.5673 C   0  0  0  0  0  0  0  0  0  0  0  0
   25.4716    0.4998  -12.9012 C   0  0  1  0  0  0  0  0  0  0  0  0
   25.9281   -0.6708  -13.5227 F   0  0  0  0  0  0  0  0  0  0  0  0
  1  2  1  1
  2  3  2  0
  2  4  2  0
  2  5  1  6
  5  6  2  0
  6  7  1  0
  7  8  2  0
  8  9  1  0
  9 10  1  0
 10 11  2  0
 11 12  1  0
 12 13  1  0
 12 14  2  0
 14 15  1  0
 15 16  1  0
 16 17  3  0
 15 18  2  0
  8 19  1  0
 19 20  2  0
 20 21  1  0
 21 22  1  1
 23 21  1  1
 23 24  1  0
 24 25  1  6
 20  5  1  0
 18 10  1  0
 24 19  1  0
M  END
$$$$
