_rank9
     RDKit          3D

 25 27  0  0  0  0  0  0  0  0999 V2000
   28.3013   -1.9792   -8.3219 C   0  0  0  0  0  0  0  0  0  0  0  0
   27.7302   -0.3022   -8.5263 S   0  0  1  0  0  6  0  0  0  0  0  0
   27.4298    0.2254   -7.1441 O   0  0  0  0  0  0  0  0  0  0  0  0
   28.7883    0.5337   -9.1431 O   0  0  0  0  0  0  0  0  0  0  0  0
   26.2981   -0.2520   -9.5251 C   0  0  0  0  0  0  0  0  0  0  0  0
   25.0596   -0.5807   -8.9804 C   0  0  0  0  0  0  0  0  0  0  0  0
   23.9145   -0.5429   -9.7428 C   0  0  0  0  0  0  0  0  0  0  0  0
   23.9790   -0.1691  -11.0933 C   0  0  0  0  0  0  0  0  0  0  0  0
   22.7836   -0.1508  -11.8129 O   0  0  0  0  0  0  0  0  0  0  0  0
   21.5959   -0.4974  -11.1905 C   0  0  0  0  0  0  0  0  0  0  0  0
   21.1148   -1.8113  -11.2540 C   0  0  0  0  0  0  0  0  0  0  0  0
   19.9474   -2.1688  -10.6438 C   0  0  0  0  0  0  0  0  0  0  0  0
   19.4889   -3.4430  -10.7102 F   0  0  0  0  0  0  0  0  0  0  0  0
   19.1907   -1.2663   -9.9420 C   0  0  0  0  0  0  0  0  0  0  0  0
   19.6311    0.0368   -9.8568 C   0  0  0  0  0  0  0  0  0  0  0  0
   18.8453    0.9944   -9.1225 C   0  0  0  0  0  0  0  0  0  0  0  0
   18.2094    1.7513   -8.5182 N   0  0  0  0  0  0  0  0  0  0  0  0
   20.8064    0.3779  -10.4762 C   0  0  0  0  0  0  0  0  0  0  0  0
   25.1868    0.1585  -11.6556 C   0  0  0  0  0  0  0  0  0  0  0  0
   26.3275    0.1083  -10.8467 C   0  0  0  0  0  0  0  0  0  0  0  0
   27.5205    0.5056  -11.6774 C   0  0  2  0  0  0  0  0  0  0  0  0
   28.4822    1.1710  -10.9679 O   0  0  0  0  0  0  0  0  0  0  0  0
   26.8342    1.4314  -12.6982 C   0  0  0  0  0  0  0  0  0  0  0  0
   25.6198    0.5536  -13.0166 C   0  0  1  0  0  0  0  0  0  0  0  0
   26.1354   -0.6014  -13.6209 F   0  0  0  0  0  0  0  0  0  0  0  0
  1  2  1  1
  2  3  2  0
  2  4  2  0
  2  5  1  6
  5  6  2  0
  6  7  1  0
  7  8  2  0
  8  9  1  0
  9 10  1  0
 10 11  2  0
 11 12  1  0
 12 13  1  0
 12 14  2  0
 14 15  1  0
 15 16  1  0
 16 17  3  0
 15 18  2  0
  8 19  1  0
 19 20  2  0
 20 21  1  0
 21 22  1  1
 23 21  1  1
 23 24  1  0
 24 25  1  6
 20  5  1  0
 18 10  1  0
 24 19  1  0
M  END
$$$$
