_rank17
     RDKit          3D

 20 21  0  0  0  0  0  0  0  0999 V2000
   28.9332    0.4582  -13.7588 C   0  0  0  0  0  0  0  0  0  0  0  0
   28.1885    1.0509  -12.5806 C   0  0  0  0  0  0  0  0  0  0  0  0
   27.6728    0.1258  -11.7233 O   0  0  0  0  0  0  0  0  0  0  0  0
   26.7061    0.5198  -10.8680 C   0  0  2  0  0  0  0  0  0  0  0  0
   27.1422    1.0965   -9.5669 C   0  0  0  0  0  0  0  0  0  0  0  0
   26.8883   -0.2068   -8.3784 S   0  0  1  0  0  6  0  0  0  0  0  0
   28.1509   -0.5381   -7.6468 O   0  0  0  0  0  0  0  0  0  0  0  0
   25.7596    0.1057   -7.4467 O   0  0  0  0  0  0  0  0  0  0  0  0
   26.4475   -1.4934   -9.5299 C   0  0  0  0  0  0  0  0  0  0  0  0
   25.7804   -0.6422  -10.5937 C   0  0  1  0  0  0  0  0  0  0  0  0
   24.6132   -0.1322  -10.0243 O   0  0  0  0  0  0  0  0  0  0  0  0
   23.3275   -0.5823  -10.1646 C   0  0  0  0  0  0  0  0  0  0  0  0
   22.7642   -0.6465  -11.4191 C   0  0  0  0  0  0  0  0  0  0  0  0
   21.4545   -1.1027  -11.5826 C   0  0  0  0  0  0  0  0  0  0  0  0
   20.9380   -1.1495  -12.8424 F   0  0  0  0  0  0  0  0  0  0  0  0
   20.7306   -1.4864  -10.4921 C   0  0  0  0  0  0  0  0  0  0  0  0
   21.2890   -1.4257   -9.2218 C   0  0  0  0  0  0  0  0  0  0  0  0
   20.5220   -1.8327   -8.0617 C   0  0  0  0  0  0  0  0  0  0  0  0
   19.8969   -2.1480   -7.1448 N   0  0  0  0  0  0  0  0  0  0  0  0
   22.5734   -0.9788   -9.0572 C   0  0  0  0  0  0  0  0  0  0  0  0
  1  2  1  1
  2  3  1  1
  4  3  1  1
  5  4  1  6
  6  5  1  6
  6  7  2  0
  6  8  2  0
  6  9  1  0
  9 10  1  1
 10 11  1  1
 11 12  1  0
 12 13  2  0
 13 14  1  0
 14 15  1  0
 14 16  2  0
 16 17  1  0
 17 18  1  0
 18 19  3  0
 17 20  2  0
 10  4  1  0
 20 12  1  0
M  END
$$$$
