_rank6
     RDKit          3D

 20 21  0  0  0  0  0  0  0  0999 V2000
   26.2051    2.6868  -13.2448 C   0  0  0  0  0  0  0  0  0  0  0  0
   26.5306    1.2133  -13.3757 C   0  0  0  0  0  0  0  0  0  0  0  0
   26.8796    0.6124  -12.2036 O   0  0  0  0  0  0  0  0  0  0  0  0
   26.1284    0.8643  -11.1110 C   0  0  2  0  0  0  0  0  0  0  0  0
   26.8487    1.1127   -9.8323 C   0  0  0  0  0  0  0  0  0  0  0  0
   26.6848   -0.4034   -8.9104 S   0  0  1  0  0  6  0  0  0  0  0  0
   28.0193   -0.9621   -8.5281 O   0  0  0  0  0  0  0  0  0  0  0  0
   25.7808   -0.2382   -7.7293 O   0  0  0  0  0  0  0  0  0  0  0  0
   25.9157   -1.3757  -10.1906 C   0  0  0  0  0  0  0  0  0  0  0  0
   25.1557   -0.2728  -10.9028 C   0  0  1  0  0  0  0  0  0  0  0  0
   24.1683    0.1669  -10.0206 O   0  0  0  0  0  0  0  0  0  0  0  0
   22.8383   -0.1583   -9.9969 C   0  0  0  0  0  0  0  0  0  0  0  0
   22.4616   -1.4804  -10.0718 C   0  0  0  0  0  0  0  0  0  0  0  0
   21.1104   -1.8321  -10.0490 C   0  0  0  0  0  0  0  0  0  0  0  0
   20.7839   -3.1526  -10.1255 F   0  0  0  0  0  0  0  0  0  0  0  0
   20.1595   -0.8590   -9.9521 C   0  0  0  0  0  0  0  0  0  0  0  0
   20.5283    0.4780   -9.8759 C   0  0  0  0  0  0  0  0  0  0  0  0
   19.5200    1.5136   -9.7729 C   0  0  0  0  0  0  0  0  0  0  0  0
   18.7059    2.3277   -9.7003 N   0  0  0  0  0  0  0  0  0  0  0  0
   21.8528    0.8270   -9.8979 C   0  0  0  0  0  0  0  0  0  0  0  0
  1  2  1  1
  2  3  1  1
  4  3  1  6
  5  4  1  6
  6  5  1  6
  6  7  2  0
  6  8  2  0
  6  9  1  0
  9 10  1  1
 10 11  1  1
 11 12  1  0
 12 13  2  0
 13 14  1  0
 14 15  1  0
 14 16  2  0
 16 17  1  0
 17 18  1  0
 18 19  3  0
 17 20  2  0
 10  4  1  0
 20 12  1  0
M  END
$$$$
