_rank15
     RDKit          3D

 20 21  0  0  0  0  0  0  0  0999 V2000
   23.8265    4.6986  -10.2986 C   0  0  0  0  0  0  0  0  0  0  0  0
   25.2083    4.0888  -10.4123 C   0  0  0  0  0  0  0  0  0  0  0  0
   25.2503    2.9307  -11.1289 O   0  0  0  0  0  0  0  0  0  0  0  0
   25.0074    1.7721  -10.4807 C   0  0  2  0  0  0  0  0  0  0  0  0
   26.1295    1.1792   -9.7029 C   0  0  0  0  0  0  0  0  0  0  0  0
   26.7327   -0.1588  -10.7136 S   0  0  1  0  0  6  0  0  0  0  0  0
   28.1905   -0.0070  -11.0150 O   0  0  0  0  0  0  0  0  0  0  0  0
   26.4144   -1.4926  -10.1140 O   0  0  0  0  0  0  0  0  0  0  0  0
   25.7340    0.1648  -12.1537 C   0  0  0  0  0  0  0  0  0  0  0  0
   24.5101    0.7435  -11.4693 C   0  0  1  0  0  0  0  0  0  0  0  0
   23.9272   -0.2968  -10.7451 O   0  0  0  0  0  0  0  0  0  0  0  0
   22.5983   -0.5862  -10.5858 C   0  0  0  0  0  0  0  0  0  0  0  0
   22.1579   -1.8773  -10.7718 C   0  0  0  0  0  0  0  0  0  0  0  0
   20.8066   -2.1922  -10.6139 C   0  0  0  0  0  0  0  0  0  0  0  0
   20.4159   -3.4829  -10.8078 F   0  0  0  0  0  0  0  0  0  0  0  0
   19.9193   -1.2139  -10.2734 C   0  0  0  0  0  0  0  0  0  0  0  0
   20.3526    0.0920  -10.0833 C   0  0  0  0  0  0  0  0  0  0  0  0
   19.4117    1.1330   -9.7216 C   0  0  0  0  0  0  0  0  0  0  0  0
   18.6536    1.9587   -9.4490 N   0  0  0  0  0  0  0  0  0  0  0  0
   21.6773    0.4049  -10.2372 C   0  0  0  0  0  0  0  0  0  0  0  0
  1  2  1  1
  2  3  1  1
  4  3  1  6
  5  4  1  6
  6  5  1  1
  6  7  2  0
  6  8  2  0
  6  9  1  0
  9 10  1  1
 10 11  1  1
 11 12  1  0
 12 13  2  0
 13 14  1  0
 14 15  1  0
 14 16  2  0
 16 17  1  0
 17 18  1  0
 18 19  3  0
 17 20  2  0
 10  4  1  0
 20 12  1  0
M  END
$$$$
