_rank18
     RDKit          3D

 20 21  0  0  0  0  0  0  0  0999 V2000
   25.6354    4.5338   -9.5041 C   0  0  0  0  0  0  0  0  0  0  0  0
   26.7751    3.5411   -9.6030 C   0  0  0  0  0  0  0  0  0  0  0  0
   26.5163    2.4723  -10.4076 O   0  0  0  0  0  0  0  0  0  0  0  0
   26.0332    1.3486   -9.8372 C   0  0  2  0  0  0  0  0  0  0  0  0
   26.9843    0.5272   -9.0395 C   0  0  0  0  0  0  0  0  0  0  0  0
   27.3967   -0.8504  -10.0920 S   0  0  1  0  0  6  0  0  0  0  0  0
   28.8732   -0.9516  -10.3127 O   0  0  0  0  0  0  0  0  0  0  0  0
   26.8112   -2.1303   -9.5834 O   0  0  0  0  0  0  0  0  0  0  0  0
   26.5573   -0.2857  -11.5590 C   0  0  0  0  0  0  0  0  0  0  0  0
   25.4187    0.4734  -10.9045 C   0  0  1  0  0  0  0  0  0  0  0  0
   24.6183   -0.4761  -10.2684 O   0  0  0  0  0  0  0  0  0  0  0  0
   23.4305   -1.0117  -10.6898 C   0  0  0  0  0  0  0  0  0  0  0  0
   23.2330   -1.2537  -12.0306 C   0  0  0  0  0  0  0  0  0  0  0  0
   22.0286   -1.7994  -12.4798 C   0  0  0  0  0  0  0  0  0  0  0  0
   21.8772   -2.0220  -13.8153 F   0  0  0  0  0  0  0  0  0  0  0  0
   21.0434   -2.0938  -11.5837 C   0  0  0  0  0  0  0  0  0  0  0  0
   21.2319   -1.8537  -10.2287 C   0  0  0  0  0  0  0  0  0  0  0  0
   20.1866   -2.1655   -9.2748 C   0  0  0  0  0  0  0  0  0  0  0  0
   19.3612   -2.4304   -8.5136 N   0  0  0  0  0  0  0  0  0  0  0  0
   22.4119   -1.3185   -9.7841 C   0  0  0  0  0  0  0  0  0  0  0  0
  1  2  1  1
  2  3  1  1
  4  3  1  6
  5  4  1  6
  6  5  1  1
  6  7  2  0
  6  8  2  0
  6  9  1  0
  9 10  1  1
 10 11  1  1
 11 12  1  0
 12 13  2  0
 13 14  1  0
 14 15  1  0
 14 16  2  0
 16 17  1  0
 17 18  1  0
 18 19  3  0
 17 20  2  0
 10  4  1  0
 20 12  1  0
M  END
$$$$
