_rank14
     RDKit          3D

 20 21  0  0  0  0  0  0  0  0999 V2000
   28.2525    1.0861  -13.6561 C   0  0  0  0  0  0  0  0  0  0  0  0
   27.1214    1.4599  -12.7207 C   0  0  0  0  0  0  0  0  0  0  0  0
   26.4863    0.3935  -12.1585 O   0  0  0  0  0  0  0  0  0  0  0  0
   25.7629    0.6018  -11.0383 C   0  0  2  0  0  0  0  0  0  0  0  0
   26.5116    0.9468   -9.7989 C   0  0  0  0  0  0  0  0  0  0  0  0
   26.5298   -0.5549   -8.8398 S   0  0  1  0  0  6  0  0  0  0  0  0
   27.9258   -0.9786   -8.5071 O   0  0  0  0  0  0  0  0  0  0  0  0
   25.6662   -0.4449   -7.6225 O   0  0  0  0  0  0  0  0  0  0  0  0
   25.8000   -1.6251  -10.0637 C   0  0  0  0  0  0  0  0  0  0  0  0
   24.9104   -0.6148  -10.7631 C   0  0  1  0  0  0  0  0  0  0  0  0
   23.9254   -0.2465   -9.8462 O   0  0  0  0  0  0  0  0  0  0  0  0
   22.6141   -0.6381   -9.7985 C   0  0  0  0  0  0  0  0  0  0  0  0
   22.3069   -1.9449   -9.4932 C   0  0  0  0  0  0  0  0  0  0  0  0
   20.9757   -2.3634   -9.4397 C   0  0  0  0  0  0  0  0  0  0  0  0
   20.7185   -3.6659   -9.1336 F   0  0  0  0  0  0  0  0  0  0  0  0
   19.9753   -1.4711   -9.6916 C   0  0  0  0  0  0  0  0  0  0  0  0
   20.2738   -0.1503  -10.0005 C   0  0  0  0  0  0  0  0  0  0  0  0
   19.2128    0.7995  -10.2686 C   0  0  0  0  0  0  0  0  0  0  0  0
   18.3597    1.5505  -10.4668 N   0  0  0  0  0  0  0  0  0  0  0  0
   21.5784    0.2642  -10.0540 C   0  0  0  0  0  0  0  0  0  0  0  0
  1  2  1  1
  2  3  1  1
  4  3  1  6
  5  4  1  6
  6  5  1  6
  6  7  2  0
  6  8  2  0
  6  9  1  0
  9 10  1  1
 10 11  1  1
 11 12  1  0
 12 13  2  0
 13 14  1  0
 14 15  1  0
 14 16  2  0
 16 17  1  0
 17 18  1  0
 18 19  3  0
 17 20  2  0
 10  4  1  0
 20 12  1  0
M  END
$$$$
