_rank16
     RDKit          3D

 20 21  0  0  0  0  0  0  0  0999 V2000
   27.5879    1.0391  -14.0538 C   0  0  0  0  0  0  0  0  0  0  0  0
   28.1524    1.2637  -12.6663 C   0  0  0  0  0  0  0  0  0  0  0  0
   27.7499    0.3448  -11.7443 O   0  0  0  0  0  0  0  0  0  0  0  0
   26.7569    0.6867  -10.8966 C   0  0  2  0  0  0  0  0  0  0  0  0
   27.1489    1.3366   -9.6161 C   0  0  0  0  0  0  0  0  0  0  0  0
   27.0033    0.0548   -8.3867 S   0  0  1  0  0  6  0  0  0  0  0  0
   28.2903   -0.1515   -7.6518 O   0  0  0  0  0  0  0  0  0  0  0  0
   25.8556    0.3049   -7.4594 O   0  0  0  0  0  0  0  0  0  0  0  0
   26.6640   -1.2981   -9.4958 C   0  0  0  0  0  0  0  0  0  0  0  0
   25.9280   -0.5366  -10.5819 C   0  0  1  0  0  0  0  0  0  0  0  0
   24.7253   -0.1041  -10.0225 O   0  0  0  0  0  0  0  0  0  0  0  0
   23.4510   -0.5067  -10.3216 C   0  0  0  0  0  0  0  0  0  0  0  0
   23.0039   -0.4335  -11.6217 C   0  0  0  0  0  0  0  0  0  0  0  0
   21.7078   -0.8392  -11.9466 C   0  0  0  0  0  0  0  0  0  0  0  0
   21.3081   -0.7494  -13.2460 F   0  0  0  0  0  0  0  0  0  0  0  0
   20.8813   -1.3104  -10.9692 C   0  0  0  0  0  0  0  0  0  0  0  0
   21.3220   -1.3885   -9.6543 C   0  0  0  0  0  0  0  0  0  0  0  0
   20.4458   -1.8887   -8.6142 C   0  0  0  0  0  0  0  0  0  0  0  0
   19.7368   -2.2929   -7.7988 N   0  0  0  0  0  0  0  0  0  0  0  0
   22.5927   -0.9915   -9.3315 C   0  0  0  0  0  0  0  0  0  0  0  0
  1  2  1  1
  2  3  1  1
  4  3  1  1
  5  4  1  6
  6  5  1  6
  6  7  2  0
  6  8  2  0
  6  9  1  0
  9 10  1  1
 10 11  1  1
 11 12  1  0
 12 13  2  0
 13 14  1  0
 14 15  1  0
 14 16  2  0
 16 17  1  0
 17 18  1  0
 18 19  3  0
 17 20  2  0
 10  4  1  0
 20 12  1  0
M  END
$$$$
