_rank19
     RDKit          3D

 20 21  0  0  0  0  0  0  0  0999 V2000
   26.9842    3.0902  -13.1269 C   0  0  0  0  0  0  0  0  0  0  0  0
   27.2343    1.6277  -13.4315 C   0  0  0  0  0  0  0  0  0  0  0  0
   27.4503    0.8568  -12.3289 O   0  0  0  0  0  0  0  0  0  0  0  0
   26.5577    0.9264  -11.3190 C   0  0  2  0  0  0  0  0  0  0  0  0
   27.0854    1.2513   -9.9656 C   0  0  0  0  0  0  0  0  0  0  0  0
   27.1094   -0.3040   -9.0961 S   0  0  1  0  0  6  0  0  0  0  0  0
   28.4775   -0.6267   -8.5830 O   0  0  0  0  0  0  0  0  0  0  0  0
   26.0742   -0.3506   -8.0162 O   0  0  0  0  0  0  0  0  0  0  0  0
   26.6672   -1.3490  -10.4701 C   0  0  0  0  0  0  0  0  0  0  0  0
   25.7945   -0.3749  -11.2387 C   0  0  1  0  0  0  0  0  0  0  0  0
   24.6581   -0.1553  -10.4597 O   0  0  0  0  0  0  0  0  0  0  0  0
   23.4114   -0.7058  -10.5940 C   0  0  0  0  0  0  0  0  0  0  0  0
   23.0007   -1.1632  -11.8259 C   0  0  0  0  0  0  0  0  0  0  0  0
   21.7332   -1.7278  -11.9829 C   0  0  0  0  0  0  0  0  0  0  0  0
   21.3691   -2.1671  -13.2201 F   0  0  0  0  0  0  0  0  0  0  0  0
   20.8984   -1.8258  -10.9087 C   0  0  0  0  0  0  0  0  0  0  0  0
   21.3024   -1.3676   -9.6613 C   0  0  0  0  0  0  0  0  0  0  0  0
   20.4174   -1.4706   -8.5186 C   0  0  0  0  0  0  0  0  0  0  0  0
   19.7262   -1.5471   -7.5981 N   0  0  0  0  0  0  0  0  0  0  0  0
   22.5451   -0.8132   -9.5032 C   0  0  0  0  0  0  0  0  0  0  0  0
  1  2  1  1
  2  3  1  1
  4  3  1  6
  5  4  1  6
  6  5  1  6
  6  7  2  0
  6  8  2  0
  6  9  1  0
  9 10  1  1
 10 11  1  1
 11 12  1  0
 12 13  2  0
 13 14  1  0
 14 15  1  0
 14 16  2  0
 16 17  1  0
 17 18  1  0
 18 19  3  0
 17 20  2  0
 10  4  1  0
 20 12  1  0
M  END
$$$$
