_rank5
     RDKit          3D

 20 21  0  0  0  0  0  0  0  0999 V2000
   27.6556    1.9687  -13.3091 C   0  0  0  0  0  0  0  0  0  0  0  0
   26.6712    0.8198  -13.2372 C   0  0  0  0  0  0  0  0  0  0  0  0
   26.7431    0.0942  -12.0861 O   0  0  0  0  0  0  0  0  0  0  0  0
   25.9762    0.4769  -11.0436 C   0  0  2  0  0  0  0  0  0  0  0  0
   26.6778    0.9821   -9.8319 C   0  0  0  0  0  0  0  0  0  0  0  0
   26.6121   -0.3654   -8.6676 S   0  0  1  0  0  6  0  0  0  0  0  0
   27.9798   -0.7650   -8.2106 O   0  0  0  0  0  0  0  0  0  0  0  0
   25.6982   -0.0629   -7.5217 O   0  0  0  0  0  0  0  0  0  0  0  0
   25.9090   -1.5860   -9.7591 C   0  0  0  0  0  0  0  0  0  0  0  0
   25.0794   -0.6694  -10.6382 C   0  0  1  0  0  0  0  0  0  0  0  0
   24.0648   -0.1524   -9.8322 O   0  0  0  0  0  0  0  0  0  0  0  0
   22.7243   -0.4306   -9.8634 C   0  0  0  0  0  0  0  0  0  0  0  0
   22.3042   -1.7203  -10.0991 C   0  0  0  0  0  0  0  0  0  0  0  0
   20.9416   -2.0238  -10.1348 C   0  0  0  0  0  0  0  0  0  0  0  0
   20.5718   -3.3136  -10.3712 F   0  0  0  0  0  0  0  0  0  0  0  0
   20.0229   -1.0357   -9.9347 C   0  0  0  0  0  0  0  0  0  0  0  0
   20.4355    0.2689   -9.6961 C   0  0  0  0  0  0  0  0  0  0  0  0
   19.4614    1.3204   -9.4833 C   0  0  0  0  0  0  0  0  0  0  0  0
   18.6790    2.1543   -9.3304 N   0  0  0  0  0  0  0  0  0  0  0  0
   21.7713    0.5707   -9.6603 C   0  0  0  0  0  0  0  0  0  0  0  0
  1  2  1  1
  2  3  1  1
  4  3  1  6
  5  4  1  6
  6  5  1  6
  6  7  2  0
  6  8  2  0
  6  9  1  0
  9 10  1  1
 10 11  1  1
 11 12  1  0
 12 13  2  0
 13 14  1  0
 14 15  1  0
 14 16  2  0
 16 17  1  0
 17 18  1  0
 18 19  3  0
 17 20  2  0
 10  4  1  0
 20 12  1  0
M  END
$$$$
