_rank8
     RDKit          3D

 16 17  0  0  0  0  0  0  0  0999 V2000
   27.6586    0.6730   -8.4672 C   0  0  0  0  0  0  0  0  0  0  0  0
   26.4921    0.2328   -9.2851 C   0  0  0  0  0  0  0  0  0  0  0  0
   26.2570    0.7463  -10.5434 C   0  0  0  0  0  0  0  0  0  0  0  0
   25.1617    0.3022  -11.2554 C   0  0  0  0  0  0  0  0  0  0  0  0
   24.3175   -0.6426  -10.7105 C   0  0  0  0  0  0  0  0  0  0  0  0
   23.1939   -1.1195  -11.4023 O   0  0  0  0  0  0  0  0  0  0  0  0
   21.9292   -0.7620  -10.9276 C   0  0  0  0  0  0  0  0  0  0  0  0
   20.9854   -1.7393  -10.6360 C   0  0  0  0  0  0  0  0  0  0  0  0
   19.7339   -1.4233  -10.1681 C   0  0  0  0  0  0  0  0  0  0  0  0
   19.4034   -0.1048   -9.9822 C   0  0  0  0  0  0  0  0  0  0  0  0
   20.3132    0.8848  -10.2609 C   0  0  0  0  0  0  0  0  0  0  0  0
   20.0342    2.2033  -10.0937 F   0  0  0  0  0  0  0  0  0  0  0  0
   21.5823    0.5598  -10.7356 C   0  0  0  0  0  0  0  0  0  0  0  0
   24.5244   -1.1827   -9.4429 C   0  0  0  0  0  0  0  0  0  0  0  0
   23.6461   -2.1538   -8.8976 N   0  0  0  0  0  0  0  0  0  0  0  0
   25.6320   -0.7145   -8.7576 C   0  0  0  0  0  0  0  0  0  0  0  0
  1  2  1  6
  2  3  2  0
  3  4  1  0
  4  5  2  0
  5  6  1  0
  6  7  1  0
  7  8  2  0
  8  9  1  0
  9 10  2  0
 10 11  1  0
 11 12  1  0
 11 13  2  0
  5 14  1  0
 14 15  1  0
 14 16  2  0
 16  2  1  0
 13  7  1  0
M  END
$$$$
