_rank12
     RDKit          3D

 16 17  0  0  0  0  0  0  0  0999 V2000
   27.7369    0.7153   -8.7186 C   0  0  0  0  0  0  0  0  0  0  0  0
   26.5393    0.1489   -9.4031 C   0  0  0  0  0  0  0  0  0  0  0  0
   26.3621    0.2685  -10.7658 C   0  0  0  0  0  0  0  0  0  0  0  0
   25.2345   -0.2753  -11.3459 C   0  0  0  0  0  0  0  0  0  0  0  0
   24.3012   -0.9281  -10.5682 C   0  0  0  0  0  0  0  0  0  0  0  0
   23.1420   -1.4942  -11.1201 O   0  0  0  0  0  0  0  0  0  0  0  0
   21.9090   -0.9347  -10.7750 C   0  0  0  0  0  0  0  0  0  0  0  0
   20.7445   -1.6873  -10.8679 C   0  0  0  0  0  0  0  0  0  0  0  0
   19.5170   -1.1691  -10.5370 C   0  0  0  0  0  0  0  0  0  0  0  0
   19.4351    0.1293  -10.1016 C   0  0  0  0  0  0  0  0  0  0  0  0
   20.5670    0.8995   -9.9988 C   0  0  0  0  0  0  0  0  0  0  0  0
   20.5383    2.1889   -9.5734 F   0  0  0  0  0  0  0  0  0  0  0  0
   21.8109    0.3698  -10.3356 C   0  0  0  0  0  0  0  0  0  0  0  0
   24.4477   -1.0676   -9.1896 C   0  0  0  0  0  0  0  0  0  0  0  0
   23.4780   -1.7423   -8.4047 N   0  0  0  0  0  0  0  0  0  0  0  0
   25.5902   -0.5103   -8.6418 C   0  0  0  0  0  0  0  0  0  0  0  0
  1  2  1  6
  2  3  2  0
  3  4  1  0
  4  5  2  0
  5  6  1  0
  6  7  1  0
  7  8  2  0
  8  9  1  0
  9 10  2  0
 10 11  1  0
 11 12  1  0
 11 13  2  0
  5 14  1  0
 14 15  1  0
 14 16  2  0
 16  2  1  0
 13  7  1  0
M  END
$$$$
