_rank9
     RDKit          3D

 16 17  0  0  0  0  0  0  0  0999 V2000
   27.9048    0.4125   -8.3823 C   0  0  0  0  0  0  0  0  0  0  0  0
   26.6662   -0.0886   -9.0443 C   0  0  0  0  0  0  0  0  0  0  0  0
   25.8244   -0.9844   -8.4187 C   0  0  0  0  0  0  0  0  0  0  0  0
   24.6918   -1.4143   -9.0791 C   0  0  0  0  0  0  0  0  0  0  0  0
   24.4111   -0.9508  -10.3473 C   0  0  0  0  0  0  0  0  0  0  0  0
   23.2700   -1.3638  -11.0516 O   0  0  0  0  0  0  0  0  0  0  0  0
   22.0227   -0.9307  -10.5940 C   0  0  0  0  0  0  0  0  0  0  0  0
   21.1139   -1.8387  -10.0643 C   0  0  0  0  0  0  0  0  0  0  0  0
   19.8803   -1.4475   -9.6058 C   0  0  0  0  0  0  0  0  0  0  0  0
   19.5327   -0.1219   -9.6715 C   0  0  0  0  0  0  0  0  0  0  0  0
   20.4080    0.8003  -10.1893 C   0  0  0  0  0  0  0  0  0  0  0  0
   20.1109    2.1227  -10.2758 F   0  0  0  0  0  0  0  0  0  0  0  0
   21.6590    0.3991  -10.6535 C   0  0  0  0  0  0  0  0  0  0  0  0
   25.2386   -0.0460  -11.0091 C   0  0  0  0  0  0  0  0  0  0  0  0
   24.9347    0.4205  -12.3136 N   0  0  0  0  0  0  0  0  0  0  0  0
   26.3652    0.3635  -10.3171 C   0  0  0  0  0  0  0  0  0  0  0  0
  1  2  1  6
  2  3  2  0
  3  4  1  0
  4  5  2  0
  5  6  1  0
  6  7  1  0
  7  8  2  0
  8  9  1  0
  9 10  2  0
 10 11  1  0
 11 12  1  0
 11 13  2  0
  5 14  1  0
 14 15  1  0
 14 16  2  0
 16  2  1  0
 13  7  1  0
M  END
$$$$
