_rank13
     RDKit          3D

 16 17  0  0  0  0  0  0  0  0999 V2000
   18.8631    1.5693   -9.6576 C   0  0  0  0  0  0  0  0  0  0  0  0
   20.1453    0.8497   -9.9058 C   0  0  0  0  0  0  0  0  0  0  0  0
   21.2682    1.5099  -10.3593 C   0  0  0  0  0  0  0  0  0  0  0  0
   22.4279    0.7932  -10.5717 C   0  0  0  0  0  0  0  0  0  0  0  0
   22.4571   -0.5647  -10.3320 C   0  0  0  0  0  0  0  0  0  0  0  0
   23.6164   -1.3284  -10.5357 O   0  0  0  0  0  0  0  0  0  0  0  0
   24.8394   -0.7874  -10.1306 C   0  0  0  0  0  0  0  0  0  0  0  0
   25.5261    0.0947  -10.9560 C   0  0  0  0  0  0  0  0  0  0  0  0
   26.7295    0.6446  -10.5893 C   0  0  0  0  0  0  0  0  0  0  0  0
   27.2717    0.3149   -9.3730 C   0  0  0  0  0  0  0  0  0  0  0  0
   26.6184   -0.5537   -8.5343 C   0  0  0  0  0  0  0  0  0  0  0  0
   27.1135   -0.9111   -7.3212 F   0  0  0  0  0  0  0  0  0  0  0  0
   25.3973   -1.1096   -8.9102 C   0  0  0  0  0  0  0  0  0  0  0  0
   21.3423   -1.2637   -9.8738 C   0  0  0  0  0  0  0  0  0  0  0  0
   21.3898   -2.6605   -9.6324 N   0  0  0  0  0  0  0  0  0  0  0  0
   20.1970   -0.5133   -9.6718 C   0  0  0  0  0  0  0  0  0  0  0  0
  1  2  1  6
  2  3  2  0
  3  4  1  0
  4  5  2  0
  5  6  1  0
  6  7  1  0
  7  8  2  0
  8  9  1  0
  9 10  2  0
 10 11  1  0
 11 12  1  0
 11 13  2  0
  5 14  1  0
 14 15  1  0
 14 16  2  0
 16  2  1  0
 13  7  1  0
M  END
$$$$
