_rank4
     RDKit          3D

 16 17  0  0  0  0  0  0  0  0999 V2000
   28.0395   -0.7186   -8.3778 C   0  0  0  0  0  0  0  0  0  0  0  0
   26.7872   -0.5774   -9.1748 C   0  0  0  0  0  0  0  0  0  0  0  0
   25.5608   -0.9507   -8.6658 C   0  0  0  0  0  0  0  0  0  0  0  0
   24.4348   -0.7975   -9.4484 C   0  0  0  0  0  0  0  0  0  0  0  0
   24.5411   -0.2776  -10.7214 C   0  0  0  0  0  0  0  0  0  0  0  0
   23.4203   -0.1062  -11.5479 O   0  0  0  0  0  0  0  0  0  0  0  0
   22.1613   -0.3989  -11.0169 C   0  0  0  0  0  0  0  0  0  0  0  0
   21.3926    0.6029  -10.4367 C   0  0  0  0  0  0  0  0  0  0  0  0
   20.1520    0.3503   -9.9057 C   0  0  0  0  0  0  0  0  0  0  0  0
   19.6547   -0.9277   -9.9480 C   0  0  0  0  0  0  0  0  0  0  0  0
   20.3892   -1.9398  -10.5143 C   0  0  0  0  0  0  0  0  0  0  0  0
   19.9412   -3.2202  -10.5805 F   0  0  0  0  0  0  0  0  0  0  0  0
   21.6479   -1.6793  -11.0522 C   0  0  0  0  0  0  0  0  0  0  0  0
   25.7630    0.1099  -11.2674 C   0  0  0  0  0  0  0  0  0  0  0  0
   25.8543    0.6429  -12.5786 N   0  0  0  0  0  0  0  0  0  0  0  0
   26.8708   -0.0578  -10.4548 C   0  0  0  0  0  0  0  0  0  0  0  0
  1  2  1  6
  2  3  2  0
  3  4  1  0
  4  5  2  0
  5  6  1  0
  6  7  1  0
  7  8  2  0
  8  9  1  0
  9 10  2  0
 10 11  1  0
 11 12  1  0
 11 13  2  0
  5 14  1  0
 14 15  1  0
 14 16  2  0
 16  2  1  0
 13  7  1  0
M  END
$$$$
