_rank1
     RDKit          3D

 16 17  0  0  0  0  0  0  0  0999 V2000
   27.7554   -0.3428   -8.2125 C   0  0  0  0  0  0  0  0  0  0  0  0
   26.5992   -0.2993   -9.1531 C   0  0  0  0  0  0  0  0  0  0  0  0
   26.7560    0.0639  -10.4744 C   0  0  0  0  0  0  0  0  0  0  0  0
   25.6505    0.0866  -11.2997 C   0  0  0  0  0  0  0  0  0  0  0  0
   24.4085   -0.2504  -10.8039 C   0  0  0  0  0  0  0  0  0  0  0  0
   23.2606   -0.2396  -11.6106 O   0  0  0  0  0  0  0  0  0  0  0  0
   22.0254   -0.4700  -10.9991 C   0  0  0  0  0  0  0  0  0  0  0  0
   21.6193   -1.7648  -10.7000 C   0  0  0  0  0  0  0  0  0  0  0  0
   20.4127   -2.0268  -10.0997 C   0  0  0  0  0  0  0  0  0  0  0  0
   19.5820   -0.9813   -9.7851 C   0  0  0  0  0  0  0  0  0  0  0  0
   19.9538    0.3098  -10.0675 C   0  0  0  0  0  0  0  0  0  0  0  0
   19.1673    1.3779   -9.7759 F   0  0  0  0  0  0  0  0  0  0  0  0
   21.1792    0.5714  -10.6768 C   0  0  0  0  0  0  0  0  0  0  0  0
   24.2133   -0.6220   -9.4753 C   0  0  0  0  0  0  0  0  0  0  0  0
   22.9288   -0.9656   -8.9818 N   0  0  0  0  0  0  0  0  0  0  0  0
   25.3437   -0.6337   -8.6766 C   0  0  0  0  0  0  0  0  0  0  0  0
  1  2  1  6
  2  3  2  0
  3  4  1  0
  4  5  2  0
  5  6  1  0
  6  7  1  0
  7  8  2  0
  8  9  1  0
  9 10  2  0
 10 11  1  0
 11 12  1  0
 11 13  2  0
  5 14  1  0
 14 15  1  0
 14 16  2  0
 16  2  1  0
 13  7  1  0
M  END
$$$$
