_rank19
     RDKit          3D

 16 17  0  0  0  0  0  0  0  0999 V2000
   27.9894    0.5036  -11.0087 C   0  0  0  0  0  0  0  0  0  0  0  0
   26.6260    0.1355  -10.5300 C   0  0  0  0  0  0  0  0  0  0  0  0
   25.5156    0.2722  -11.3366 C   0  0  0  0  0  0  0  0  0  0  0  0
   24.2783   -0.0841  -10.8409 C   0  0  0  0  0  0  0  0  0  0  0  0
   24.1603   -0.5697   -9.5554 C   0  0  0  0  0  0  0  0  0  0  0  0
   22.9204   -0.9427   -9.0150 O   0  0  0  0  0  0  0  0  0  0  0  0
   21.7914   -0.8467   -9.8328 C   0  0  0  0  0  0  0  0  0  0  0  0
   21.6454   -1.6852  -10.9312 C   0  0  0  0  0  0  0  0  0  0  0  0
   20.5493   -1.6178  -11.7553 C   0  0  0  0  0  0  0  0  0  0  0  0
   19.5684   -0.6966  -11.4884 C   0  0  0  0  0  0  0  0  0  0  0  0
   19.6826    0.1465  -10.4109 C   0  0  0  0  0  0  0  0  0  0  0  0
   18.7395    1.0746  -10.1050 F   0  0  0  0  0  0  0  0  0  0  0  0
   20.7966    0.0749   -9.5770 C   0  0  0  0  0  0  0  0  0  0  0  0
   25.2599   -0.7209   -8.7132 C   0  0  0  0  0  0  0  0  0  0  0  0
   25.1206   -1.2219   -7.3936 N   0  0  0  0  0  0  0  0  0  0  0  0
   26.4847   -0.3538   -9.2432 C   0  0  0  0  0  0  0  0  0  0  0  0
  1  2  1  6
  2  3  2  0
  3  4  1  0
  4  5  2  0
  5  6  1  0
  6  7  1  0
  7  8  2  0
  8  9  1  0
  9 10  2  0
 10 11  1  0
 11 12  1  0
 11 13  2  0
  5 14  1  0
 14 15  1  0
 14 16  2  0
 16  2  1  0
 13  7  1  0
M  END
$$$$
