_rank18
     RDKit          3D

 16 17  0  0  0  0  0  0  0  0999 V2000
   28.4929   -0.4612   -8.4150 C   0  0  0  0  0  0  0  0  0  0  0  0
   27.2322   -0.4106   -9.2097 C   0  0  0  0  0  0  0  0  0  0  0  0
   26.0688   -0.9971   -8.7570 C   0  0  0  0  0  0  0  0  0  0  0  0
   24.9316   -0.9191   -9.5345 C   0  0  0  0  0  0  0  0  0  0  0  0
   24.9646   -0.2621  -10.7466 C   0  0  0  0  0  0  0  0  0  0  0  0
   23.8300   -0.1610  -11.5659 O   0  0  0  0  0  0  0  0  0  0  0  0
   22.6980   -0.9016  -11.2152 C   0  0  0  0  0  0  0  0  0  0  0  0
   22.1296   -1.7888  -12.1210 C   0  0  0  0  0  0  0  0  0  0  0  0
   21.0180   -2.5317  -11.8094 C   0  0  0  0  0  0  0  0  0  0  0  0
   20.4500   -2.3958  -10.5680 C   0  0  0  0  0  0  0  0  0  0  0  0
   20.9874   -1.5277   -9.6502 C   0  0  0  0  0  0  0  0  0  0  0  0
   20.4623   -1.3576   -8.4093 F   0  0  0  0  0  0  0  0  0  0  0  0
   22.1157   -0.7755   -9.9704 C   0  0  0  0  0  0  0  0  0  0  0  0
   26.1216    0.3414  -11.2348 C   0  0  0  0  0  0  0  0  0  0  0  0
   26.1379    1.0131  -12.4839 N   0  0  0  0  0  0  0  0  0  0  0  0
   27.2428    0.2436  -10.4291 C   0  0  0  0  0  0  0  0  0  0  0  0
  1  2  1  6
  2  3  2  0
  3  4  1  0
  4  5  2  0
  5  6  1  0
  6  7  1  0
  7  8  2  0
  8  9  1  0
  9 10  2  0
 10 11  1  0
 11 12  1  0
 11 13  2  0
  5 14  1  0
 14 15  1  0
 14 16  2  0
 16  2  1  0
 13  7  1  0
M  END
$$$$
