_rank2
     RDKit          3D

 16 17  0  0  0  0  0  0  0  0999 V2000
   27.9545   -0.1126   -7.9794 C   0  0  0  0  0  0  0  0  0  0  0  0
   26.7222   -0.2958   -8.7987 C   0  0  0  0  0  0  0  0  0  0  0  0
   25.4665   -0.0669   -8.2761 C   0  0  0  0  0  0  0  0  0  0  0  0
   24.3610   -0.2525   -9.0806 C   0  0  0  0  0  0  0  0  0  0  0  0
   24.5164   -0.6614  -10.3885 C   0  0  0  0  0  0  0  0  0  0  0  0
   23.4178   -0.8612  -11.2381 O   0  0  0  0  0  0  0  0  0  0  0  0
   22.1378   -0.8134  -10.6794 C   0  0  0  0  0  0  0  0  0  0  0  0
   21.4511   -1.9871  -10.3934 C   0  0  0  0  0  0  0  0  0  0  0  0
   20.1927   -1.9766   -9.8446 C   0  0  0  0  0  0  0  0  0  0  0  0
   19.5937   -0.7732   -9.5697 C   0  0  0  0  0  0  0  0  0  0  0  0
   20.2455    0.4043   -9.8405 C   0  0  0  0  0  0  0  0  0  0  0  0
   19.6956    1.6199   -9.5868 F   0  0  0  0  0  0  0  0  0  0  0  0
   21.5226    0.3892  -10.3975 C   0  0  0  0  0  0  0  0  0  0  0  0
   25.7691   -0.9018  -10.9492 C   0  0  0  0  0  0  0  0  0  0  0  0
   25.9109   -1.3220  -12.2964 N   0  0  0  0  0  0  0  0  0  0  0  0
   26.8551   -0.7057  -10.1138 C   0  0  0  0  0  0  0  0  0  0  0  0
  1  2  1  6
  2  3  2  0
  3  4  1  0
  4  5  2  0
  5  6  1  0
  6  7  1  0
  7  8  2  0
  8  9  1  0
  9 10  2  0
 10 11  1  0
 11 12  1  0
 11 13  2  0
  5 14  1  0
 14 15  1  0
 14 16  2  0
 16  2  1  0
 13  7  1  0
M  END
$$$$
