_rank15
     RDKit          3D

 16 17  0  0  0  0  0  0  0  0999 V2000
   18.7686    0.8367  -10.9408 C   0  0  0  0  0  0  0  0  0  0  0  0
   20.0578    0.0937  -10.8435 C   0  0  0  0  0  0  0  0  0  0  0  0
   20.5049   -0.7146  -11.8677 C   0  0  0  0  0  0  0  0  0  0  0  0
   21.7058   -1.3785  -11.7230 C   0  0  0  0  0  0  0  0  0  0  0  0
   22.4440   -1.2316  -10.5673 C   0  0  0  0  0  0  0  0  0  0  0  0
   23.6694   -1.8895  -10.3820 O   0  0  0  0  0  0  0  0  0  0  0  0
   24.7975   -1.1122  -10.1063 C   0  0  0  0  0  0  0  0  0  0  0  0
   24.9979    0.0948  -10.7649 C   0  0  0  0  0  0  0  0  0  0  0  0
   26.0948    0.8829  -10.5184 C   0  0  0  0  0  0  0  0  0  0  0  0
   27.0212    0.4686   -9.5952 C   0  0  0  0  0  0  0  0  0  0  0  0
   26.8524   -0.7189   -8.9273 C   0  0  0  0  0  0  0  0  0  0  0  0
   27.7404   -1.1723   -8.0052 F   0  0  0  0  0  0  0  0  0  0  0  0
   25.7378   -1.5158   -9.1805 C   0  0  0  0  0  0  0  0  0  0  0  0
   22.0231   -0.4238   -9.5130 C   0  0  0  0  0  0  0  0  0  0  0  0
   22.7949   -0.2839   -8.3313 N   0  0  0  0  0  0  0  0  0  0  0  0
   20.8146    0.2267   -9.6925 C   0  0  0  0  0  0  0  0  0  0  0  0
  1  2  1  6
  2  3  2  0
  3  4  1  0
  4  5  2  0
  5  6  1  0
  6  7  1  0
  7  8  2  0
  8  9  1  0
  9 10  2  0
 10 11  1  0
 11 12  1  0
 11 13  2  0
  5 14  1  0
 14 15  1  0
 14 16  2  0
 16  2  1  0
 13  7  1  0
M  END
$$$$
