_rank14
     RDKit          3D

 16 17  0  0  0  0  0  0  0  0999 V2000
   27.5202    1.2411  -11.0977 C   0  0  0  0  0  0  0  0  0  0  0  0
   26.2183    0.5466  -10.8826 C   0  0  0  0  0  0  0  0  0  0  0  0
   25.3334    0.3331  -11.9188 C   0  0  0  0  0  0  0  0  0  0  0  0
   24.1429   -0.3152  -11.6616 C   0  0  0  0  0  0  0  0  0  0  0  0
   23.8479   -0.7414  -10.3836 C   0  0  0  0  0  0  0  0  0  0  0  0
   22.6485   -1.4039  -10.0816 O   0  0  0  0  0  0  0  0  0  0  0  0
   21.4474   -0.7336  -10.3281 C   0  0  0  0  0  0  0  0  0  0  0  0
   21.2380    0.5434   -9.8218 C   0  0  0  0  0  0  0  0  0  0  0  0
   20.0703    1.2302  -10.0448 C   0  0  0  0  0  0  0  0  0  0  0  0
   19.0800    0.6405  -10.7890 C   0  0  0  0  0  0  0  0  0  0  0  0
   19.2557   -0.6202  -11.3034 C   0  0  0  0  0  0  0  0  0  0  0  0
   18.3063   -1.2464  -12.0456 F   0  0  0  0  0  0  0  0  0  0  0  0
   20.4423   -1.3138  -11.0747 C   0  0  0  0  0  0  0  0  0  0  0  0
   24.7178   -0.5427   -9.3135 C   0  0  0  0  0  0  0  0  0  0  0  0
   24.3985   -0.9876   -8.0051 N   0  0  0  0  0  0  0  0  0  0  0  0
   25.9020    0.1106   -9.6078 C   0  0  0  0  0  0  0  0  0  0  0  0
  1  2  1  6
  2  3  2  0
  3  4  1  0
  4  5  2  0
  5  6  1  0
  6  7  1  0
  7  8  2  0
  8  9  1  0
  9 10  2  0
 10 11  1  0
 11 12  1  0
 11 13  2  0
  5 14  1  0
 14 15  1  0
 14 16  2  0
 16  2  1  0
 13  7  1  0
M  END
$$$$
