_rank6
     RDKit          3D

 16 17  0  0  0  0  0  0  0  0999 V2000
   28.2716   -0.7395   -8.2764 C   0  0  0  0  0  0  0  0  0  0  0  0
   27.0114   -0.5914   -9.0596 C   0  0  0  0  0  0  0  0  0  0  0  0
   25.7738   -0.7718   -8.4780 C   0  0  0  0  0  0  0  0  0  0  0  0
   24.6409   -0.6220   -9.2512 C   0  0  0  0  0  0  0  0  0  0  0  0
   24.7515   -0.2963  -10.5868 C   0  0  0  0  0  0  0  0  0  0  0  0
   23.6240   -0.1352  -11.4062 O   0  0  0  0  0  0  0  0  0  0  0  0
   22.3894   -0.5718  -10.9185 C   0  0  0  0  0  0  0  0  0  0  0  0
   22.2444   -1.8633  -10.4265 C   0  0  0  0  0  0  0  0  0  0  0  0
   21.0463   -2.3246   -9.9400 C   0  0  0  0  0  0  0  0  0  0  0  0
   19.9592   -1.4878   -9.9385 C   0  0  0  0  0  0  0  0  0  0  0  0
   20.0693   -0.2060  -10.4176 C   0  0  0  0  0  0  0  0  0  0  0  0
   19.0233    0.6600  -10.4375 F   0  0  0  0  0  0  0  0  0  0  0  0
   21.2871    0.2583  -10.9105 C   0  0  0  0  0  0  0  0  0  0  0  0
   25.9847   -0.1068  -11.2070 C   0  0  0  0  0  0  0  0  0  0  0  0
   26.0803    0.2279  -12.5820 N   0  0  0  0  0  0  0  0  0  0  0  0
   27.0992   -0.2650  -10.4016 C   0  0  0  0  0  0  0  0  0  0  0  0
  1  2  1  6
  2  3  2  0
  3  4  1  0
  4  5  2  0
  5  6  1  0
  6  7  1  0
  7  8  2  0
  8  9  1  0
  9 10  2  0
 10 11  1  0
 11 12  1  0
 11 13  2  0
  5 14  1  0
 14 15  1  0
 14 16  2  0
 16  2  1  0
 13  7  1  0
M  END
$$$$
