_rank17
     RDKit          3D

 16 17  0  0  0  0  0  0  0  0999 V2000
   28.6273   -1.0625   -9.1770 C   0  0  0  0  0  0  0  0  0  0  0  0
   27.2095   -0.7598   -9.5258 C   0  0  0  0  0  0  0  0  0  0  0  0
   26.1762   -1.0381   -8.6556 C   0  0  0  0  0  0  0  0  0  0  0  0
   24.8832   -0.7366   -9.0312 C   0  0  0  0  0  0  0  0  0  0  0  0
   24.6344   -0.1648  -10.2614 C   0  0  0  0  0  0  0  0  0  0  0  0
   23.3342    0.1565  -10.6799 O   0  0  0  0  0  0  0  0  0  0  0  0
   22.3932   -0.8740  -10.7511 C   0  0  0  0  0  0  0  0  0  0  0  0
   22.3676   -1.8711   -9.7835 C   0  0  0  0  0  0  0  0  0  0  0  0
   21.4569   -2.8977   -9.8230 C   0  0  0  0  0  0  0  0  0  0  0  0
   20.5446   -2.9426  -10.8466 C   0  0  0  0  0  0  0  0  0  0  0  0
   20.5435   -1.9728  -11.8183 C   0  0  0  0  0  0  0  0  0  0  0  0
   19.6616   -1.9730  -12.8511 F   0  0  0  0  0  0  0  0  0  0  0  0
   21.4695   -0.9325  -11.7746 C   0  0  0  0  0  0  0  0  0  0  0  0
   25.6532    0.1298  -11.1649 C   0  0  0  0  0  0  0  0  0  0  0  0
   25.3795    0.7179  -12.4262 N   0  0  0  0  0  0  0  0  0  0  0  0
   26.9370   -0.1860  -10.7552 C   0  0  0  0  0  0  0  0  0  0  0  0
  1  2  1  6
  2  3  2  0
  3  4  1  0
  4  5  2  0
  5  6  1  0
  6  7  1  0
  7  8  2  0
  8  9  1  0
  9 10  2  0
 10 11  1  0
 11 12  1  0
 11 13  2  0
  5 14  1  0
 14 15  1  0
 14 16  2  0
 16  2  1  0
 13  7  1  0
M  END
$$$$
