_rank16
     RDKit          3D

 16 17  0  0  0  0  0  0  0  0999 V2000
   18.8722    1.4276   -9.4673 C   0  0  0  0  0  0  0  0  0  0  0  0
   20.1184    0.6948   -9.8330 C   0  0  0  0  0  0  0  0  0  0  0  0
   21.3619    1.2792   -9.7126 C   0  0  0  0  0  0  0  0  0  0  0  0
   22.4811    0.5537  -10.0658 C   0  0  0  0  0  0  0  0  0  0  0  0
   22.3512   -0.7377  -10.5323 C   0  0  0  0  0  0  0  0  0  0  0  0
   23.4645   -1.5077  -10.9015 O   0  0  0  0  0  0  0  0  0  0  0  0
   24.7355   -1.0146  -10.5951 C   0  0  0  0  0  0  0  0  0  0  0  0
   25.4483   -0.2766  -11.5322 C   0  0  0  0  0  0  0  0  0  0  0  0
   26.6989    0.2225  -11.2643 C   0  0  0  0  0  0  0  0  0  0  0  0
   27.2633   -0.0129  -10.0362 C   0  0  0  0  0  0  0  0  0  0  0  0
   26.5851   -0.7385   -9.0884 C   0  0  0  0  0  0  0  0  0  0  0  0
   27.1005   -0.9984   -7.8590 F   0  0  0  0  0  0  0  0  0  0  0  0
   25.3161   -1.2433   -9.3642 C   0  0  0  0  0  0  0  0  0  0  0  0
   21.1115   -1.3592  -10.6667 C   0  0  0  0  0  0  0  0  0  0  0  0
   20.9960   -2.6883  -11.1481 N   0  0  0  0  0  0  0  0  0  0  0  0
   20.0111   -0.6023  -10.3033 C   0  0  0  0  0  0  0  0  0  0  0  0
  1  2  1  6
  2  3  2  0
  3  4  1  0
  4  5  2  0
  5  6  1  0
  6  7  1  0
  7  8  2  0
  8  9  1  0
  9 10  2  0
 10 11  1  0
 11 12  1  0
 11 13  2  0
  5 14  1  0
 14 15  1  0
 14 16  2  0
 16  2  1  0
 13  7  1  0
M  END
$$$$
