_rank5
     RDKit          3D

 19 20  0  0  0  0  0  0  0  0999 V2000
   25.5529    1.2872  -13.4560 N   0  0  0  0  0  0  0  0  0  0  0  0
   25.4677    0.7820  -12.4288 C   0  0  0  0  0  0  0  0  0  0  0  0
   25.3695    0.1297  -11.1562 C   0  0  0  0  0  0  0  0  0  0  0  0
   26.5046   -0.4800  -10.6030 C   0  0  0  0  0  0  0  0  0  0  0  0
   26.4872   -1.1340   -9.3951 C   0  0  0  0  0  0  0  0  0  0  0  0
   27.7526   -1.7346   -8.9229 C   0  0  0  0  0  0  0  0  0  0  0  0
   28.2351   -1.1622   -7.6978 N   0  0  0  0  0  0  0  0  0  0  0  0
   25.3007   -1.1763   -8.7274 C   0  0  0  0  0  0  0  0  0  0  0  0
   24.1878   -0.5884   -9.2512 C   0  0  0  0  0  0  0  0  0  0  0  0
   24.1750    0.0923  -10.4924 C   0  0  0  0  0  0  0  0  0  0  0  0
   22.9884    0.6505  -10.9257 O   0  0  0  0  0  0  0  0  0  0  0  0
   21.7606    0.0669  -10.7261 C   0  0  0  0  0  0  0  0  0  0  0  0
   20.6304    0.8880  -10.5525 C   0  0  0  0  0  0  0  0  0  0  0  0
   19.3967    0.3201  -10.3483 C   0  0  0  0  0  0  0  0  0  0  0  0
   18.3031    1.1093  -10.1804 F   0  0  0  0  0  0  0  0  0  0  0  0
   19.2661   -1.0481  -10.3135 C   0  0  0  0  0  0  0  0  0  0  0  0
   20.3654   -1.8549  -10.4821 C   0  0  0  0  0  0  0  0  0  0  0  0
   20.2863   -3.2213  -10.4556 F   0  0  0  0  0  0  0  0  0  0  0  0
   21.6020   -1.2978  -10.6865 C   0  0  0  0  0  0  0  0  0  0  0  0
  1  2  3  0
  2  3  1  0
  3  4  2  0
  4  5  1  0
  5  6  1  0
  6  7  1  6
  5  8  2  0
  8  9  1  0
  9 10  2  0
 10 11  1  0
 11 12  1  0
 12 13  2  0
 13 14  1  0
 14 15  1  0
 14 16  2  0
 16 17  1  0
 17 18  1  0
 17 19  2  0
 10  3  1  0
 19 12  1  0
M  END
$$$$
