_rank15
     RDKit          3D

 19 20  0  0  0  0  0  0  0  0999 V2000
   21.2116   -4.0985  -11.8909 N   0  0  0  0  0  0  0  0  0  0  0  0
   21.0577   -3.0188  -11.5330 C   0  0  0  0  0  0  0  0  0  0  0  0
   20.8410   -1.6747  -11.0844 C   0  0  0  0  0  0  0  0  0  0  0  0
   19.7343   -0.9574  -11.5609 C   0  0  0  0  0  0  0  0  0  0  0  0
   19.4663    0.3372  -11.1874 C   0  0  0  0  0  0  0  0  0  0  0  0
   18.2665    0.9815  -11.7620 C   0  0  0  0  0  0  0  0  0  0  0  0
   17.1051    0.1375  -11.7541 N   0  0  0  0  0  0  0  0  0  0  0  0
   20.3310    0.9247  -10.3143 C   0  0  0  0  0  0  0  0  0  0  0  0
   21.4117    0.2411   -9.8414 C   0  0  0  0  0  0  0  0  0  0  0  0
   21.7134   -1.0926  -10.2076 C   0  0  0  0  0  0  0  0  0  0  0  0
   22.8364   -1.6868   -9.6659 O   0  0  0  0  0  0  0  0  0  0  0  0
   24.0839   -1.1115   -9.6922 C   0  0  0  0  0  0  0  0  0  0  0  0
   24.7862   -1.0509  -10.9106 C   0  0  0  0  0  0  0  0  0  0  0  0
   26.0356   -0.4823  -10.9529 C   0  0  0  0  0  0  0  0  0  0  0  0
   26.7170   -0.4217  -12.1272 F   0  0  0  0  0  0  0  0  0  0  0  0
   26.5992    0.0268   -9.8068 C   0  0  0  0  0  0  0  0  0  0  0  0
   25.9188   -0.0295   -8.6145 C   0  0  0  0  0  0  0  0  0  0  0  0
   26.4375    0.4633   -7.4473 F   0  0  0  0  0  0  0  0  0  0  0  0
   24.6705   -0.5955   -8.5614 C   0  0  0  0  0  0  0  0  0  0  0  0
  1  2  3  0
  2  3  1  0
  3  4  2  0
  4  5  1  0
  5  6  1  0
  6  7  1  6
  5  8  2  0
  8  9  1  0
  9 10  2  0
 10 11  1  0
 11 12  1  0
 12 13  2  0
 13 14  1  0
 14 15  1  0
 14 16  2  0
 16 17  1  0
 17 18  1  0
 17 19  2  0
 10  3  1  0
 19 12  1  0
M  END
$$$$
