_rank3
     RDKit          3D

 19 20  0  0  0  0  0  0  0  0999 V2000
   26.0476   -0.0049  -13.7052 N   0  0  0  0  0  0  0  0  0  0  0  0
   25.8402   -0.0553  -12.5774 C   0  0  0  0  0  0  0  0  0  0  0  0
   25.5581   -0.1095  -11.1730 C   0  0  0  0  0  0  0  0  0  0  0  0
   26.5672    0.2091  -10.2529 C   0  0  0  0  0  0  0  0  0  0  0  0
   26.3777    0.1690   -8.8929 C   0  0  0  0  0  0  0  0  0  0  0  0
   27.5232    0.5285   -8.0307 C   0  0  0  0  0  0  0  0  0  0  0  0
   28.3024   -0.6031   -7.6139 N   0  0  0  0  0  0  0  0  0  0  0  0
   25.1447   -0.2002   -8.4471 C   0  0  0  0  0  0  0  0  0  0  0  0
   24.1526   -0.5129   -9.3283 C   0  0  0  0  0  0  0  0  0  0  0  0
   24.3178   -0.4805  -10.7339 C   0  0  0  0  0  0  0  0  0  0  0  0
   23.2423   -0.8178  -11.5319 O   0  0  0  0  0  0  0  0  0  0  0  0
   21.9416   -0.8152  -11.0891 C   0  0  0  0  0  0  0  0  0  0  0  0
   21.4107    0.3606  -10.5259 C   0  0  0  0  0  0  0  0  0  0  0  0
   20.1134    0.3784  -10.0752 C   0  0  0  0  0  0  0  0  0  0  0  0
   19.5970    1.5115   -9.5309 F   0  0  0  0  0  0  0  0  0  0  0  0
   19.3349   -0.7506  -10.1742 C   0  0  0  0  0  0  0  0  0  0  0  0
   19.8475   -1.9012  -10.7228 C   0  0  0  0  0  0  0  0  0  0  0  0
   19.1124   -3.0499  -10.8430 F   0  0  0  0  0  0  0  0  0  0  0  0
   21.1418   -1.9296  -11.1757 C   0  0  0  0  0  0  0  0  0  0  0  0
  1  2  3  0
  2  3  1  0
  3  4  2  0
  4  5  1  0
  5  6  1  0
  6  7  1  6
  5  8  2  0
  8  9  1  0
  9 10  2  0
 10 11  1  0
 11 12  1  0
 12 13  2  0
 13 14  1  0
 14 15  1  0
 14 16  2  0
 16 17  1  0
 17 18  1  0
 17 19  2  0
 10  3  1  0
 19 12  1  0
M  END
$$$$
