_rank2
     RDKit          3D

 19 20  0  0  0  0  0  0  0  0999 V2000
   25.6394    0.7361  -13.8923 N   0  0  0  0  0  0  0  0  0  0  0  0
   25.5596    0.4182  -12.7921 C   0  0  0  0  0  0  0  0  0  0  0  0
   25.4750    0.0403  -11.4120 C   0  0  0  0  0  0  0  0  0  0  0  0
   26.6419   -0.3145  -10.7201 C   0  0  0  0  0  0  0  0  0  0  0  0
   26.6405   -0.6990   -9.4013 C   0  0  0  0  0  0  0  0  0  0  0  0
   27.9393   -1.0480   -8.7881 C   0  0  0  0  0  0  0  0  0  0  0  0
   27.8621   -1.2680   -7.3714 N   0  0  0  0  0  0  0  0  0  0  0  0
   25.4377   -0.7276   -8.7628 C   0  0  0  0  0  0  0  0  0  0  0  0
   24.2938   -0.3854   -9.4208 C   0  0  0  0  0  0  0  0  0  0  0  0
   24.2639    0.0148  -10.7784 C   0  0  0  0  0  0  0  0  0  0  0  0
   23.0460    0.3391  -11.3432 O   0  0  0  0  0  0  0  0  0  0  0  0
   21.8471   -0.1592  -10.8938 C   0  0  0  0  0  0  0  0  0  0  0  0
   20.7794    0.7279  -10.6599 C   0  0  0  0  0  0  0  0  0  0  0  0
   19.5757    0.2459  -10.2070 C   0  0  0  0  0  0  0  0  0  0  0  0
   18.5424    1.0990   -9.9801 F   0  0  0  0  0  0  0  0  0  0  0  0
   19.4142   -1.1010   -9.9826 C   0  0  0  0  0  0  0  0  0  0  0  0
   20.4525   -1.9718  -10.2089 C   0  0  0  0  0  0  0  0  0  0  0  0
   20.3407   -3.3202  -10.0004 F   0  0  0  0  0  0  0  0  0  0  0  0
   21.6588   -1.5007  -10.6610 C   0  0  0  0  0  0  0  0  0  0  0  0
  1  2  3  0
  2  3  1  0
  3  4  2  0
  4  5  1  0
  5  6  1  0
  6  7  1  6
  5  8  2  0
  8  9  1  0
  9 10  2  0
 10 11  1  0
 11 12  1  0
 12 13  2  0
 13 14  1  0
 14 15  1  0
 14 16  2  0
 16 17  1  0
 17 18  1  0
 17 19  2  0
 10  3  1  0
 19 12  1  0
M  END
$$$$
