_rank7
     RDKit          3D

 19 20  0  0  0  0  0  0  0  0999 V2000
   25.9357   -0.0916  -13.3275 N   0  0  0  0  0  0  0  0  0  0  0  0
   25.8928   -0.0862  -12.1805 C   0  0  0  0  0  0  0  0  0  0  0  0
   25.8567   -0.0975  -10.7475 C   0  0  0  0  0  0  0  0  0  0  0  0
   26.9817   -0.5314  -10.0315 C   0  0  0  0  0  0  0  0  0  0  0  0
   27.0196   -0.5821   -8.6593 C   0  0  0  0  0  0  0  0  0  0  0  0
   28.2671   -1.0588   -8.0257 C   0  0  0  0  0  0  0  0  0  0  0  0
   28.3324   -2.4871   -7.8948 N   0  0  0  0  0  0  0  0  0  0  0  0
   25.9005   -0.1875   -7.9908 C   0  0  0  0  0  0  0  0  0  0  0  0
   24.7984    0.2373   -8.6717 C   0  0  0  0  0  0  0  0  0  0  0  0
   24.7297    0.3007  -10.0843 C   0  0  0  0  0  0  0  0  0  0  0  0
   23.5603    0.7473  -10.6678 O   0  0  0  0  0  0  0  0  0  0  0  0
   22.3747    0.0551  -10.6120 C   0  0  0  0  0  0  0  0  0  0  0  0
   22.4015   -1.3522  -10.5986 C   0  0  0  0  0  0  0  0  0  0  0  0
   21.2250   -2.0588  -10.5468 C   0  0  0  0  0  0  0  0  0  0  0  0
   21.2465   -3.4176  -10.5336 F   0  0  0  0  0  0  0  0  0  0  0  0
   20.0230   -1.3922  -10.5081 C   0  0  0  0  0  0  0  0  0  0  0  0
   19.9903   -0.0187  -10.5211 C   0  0  0  0  0  0  0  0  0  0  0  0
   18.8194    0.6897  -10.4840 F   0  0  0  0  0  0  0  0  0  0  0  0
   21.1596    0.6963  -10.5729 C   0  0  0  0  0  0  0  0  0  0  0  0
  1  2  3  0
  2  3  1  0
  3  4  2  0
  4  5  1  0
  5  6  1  0
  6  7  1  6
  5  8  2  0
  8  9  1  0
  9 10  2  0
 10 11  1  0
 11 12  1  0
 12 13  2  0
 13 14  1  0
 14 15  1  0
 14 16  2  0
 16 17  1  0
 17 18  1  0
 17 19  2  0
 10  3  1  0
 19 12  1  0
M  END
$$$$
