_rank6
     RDKit          3D

 19 20  0  0  0  0  0  0  0  0999 V2000
   26.3427   -0.9535   -7.7954 N   0  0  0  0  0  0  0  0  0  0  0  0
   26.0295   -0.6680   -8.8622 C   0  0  0  0  0  0  0  0  0  0  0  0
   25.6613   -0.3176  -10.2025 C   0  0  0  0  0  0  0  0  0  0  0  0
   26.6607   -0.1467  -11.1711 C   0  0  0  0  0  0  0  0  0  0  0  0
   26.3883    0.2002  -12.4721 C   0  0  0  0  0  0  0  0  0  0  0  0
   27.5329    0.3491  -13.3955 C   0  0  0  0  0  0  0  0  0  0  0  0
   28.3164    1.5268  -13.1496 N   0  0  0  0  0  0  0  0  0  0  0  0
   25.0804    0.3796  -12.8075 C   0  0  0  0  0  0  0  0  0  0  0  0
   24.0965    0.2171  -11.8778 C   0  0  0  0  0  0  0  0  0  0  0  0
   24.3463   -0.1400  -10.5308 C   0  0  0  0  0  0  0  0  0  0  0  0
   23.2709   -0.2769   -9.6751 O   0  0  0  0  0  0  0  0  0  0  0  0
   21.9815   -0.4756  -10.1063 C   0  0  0  0  0  0  0  0  0  0  0  0
   21.6563   -1.6746  -10.7683 C   0  0  0  0  0  0  0  0  0  0  0  0
   20.3728   -1.8868  -11.2087 C   0  0  0  0  0  0  0  0  0  0  0  0
   20.0546   -3.0431  -11.8481 F   0  0  0  0  0  0  0  0  0  0  0  0
   19.4075   -0.9296  -11.0032 C   0  0  0  0  0  0  0  0  0  0  0  0
   19.7189    0.2428  -10.3579 C   0  0  0  0  0  0  0  0  0  0  0  0
   18.7933    1.2254  -10.1299 F   0  0  0  0  0  0  0  0  0  0  0  0
   20.9976    0.4647   -9.9144 C   0  0  0  0  0  0  0  0  0  0  0  0
  1  2  3  0
  2  3  1  0
  3  4  2  0
  4  5  1  0
  5  6  1  0
  6  7  1  6
  5  8  2  0
  8  9  1  0
  9 10  2  0
 10 11  1  0
 11 12  1  0
 12 13  2  0
 13 14  1  0
 14 15  1  0
 14 16  2  0
 16 17  1  0
 17 18  1  0
 17 19  2  0
 10  3  1  0
 19 12  1  0
M  END
$$$$
