_rank17
     RDKit          3D

 19 20  0  0  0  0  0  0  0  0999 V2000
   24.1957   -1.5630   -7.6159 N   0  0  0  0  0  0  0  0  0  0  0  0
   24.7210   -1.0943   -8.5225 C   0  0  0  0  0  0  0  0  0  0  0  0
   25.3853   -0.4904   -9.6400 C   0  0  0  0  0  0  0  0  0  0  0  0
   26.5511    0.2594   -9.4280 C   0  0  0  0  0  0  0  0  0  0  0  0
   27.2368    0.8777  -10.4452 C   0  0  0  0  0  0  0  0  0  0  0  0
   28.4528    1.6385  -10.0883 C   0  0  0  0  0  0  0  0  0  0  0  0
   28.2333    3.0539   -9.9898 N   0  0  0  0  0  0  0  0  0  0  0  0
   26.7389    0.7391  -11.7054 C   0  0  0  0  0  0  0  0  0  0  0  0
   25.6066    0.0134  -11.9288 C   0  0  0  0  0  0  0  0  0  0  0  0
   24.8792   -0.6348  -10.9017 C   0  0  0  0  0  0  0  0  0  0  0  0
   23.7444   -1.3435  -11.2442 O   0  0  0  0  0  0  0  0  0  0  0  0
   22.4773   -0.9727  -10.8634 C   0  0  0  0  0  0  0  0  0  0  0  0
   21.4351   -1.9161  -10.9358 C   0  0  0  0  0  0  0  0  0  0  0  0
   20.1624   -1.5600  -10.5623 C   0  0  0  0  0  0  0  0  0  0  0  0
   19.1534   -2.4679  -10.6306 F   0  0  0  0  0  0  0  0  0  0  0  0
   19.9069   -0.2840  -10.1186 C   0  0  0  0  0  0  0  0  0  0  0  0
   20.9199    0.6414  -10.0458 C   0  0  0  0  0  0  0  0  0  0  0  0
   20.7156    1.9233   -9.6110 F   0  0  0  0  0  0  0  0  0  0  0  0
   22.1945    0.2960  -10.4166 C   0  0  0  0  0  0  0  0  0  0  0  0
  1  2  3  0
  2  3  1  0
  3  4  2  0
  4  5  1  0
  5  6  1  0
  6  7  1  6
  5  8  2  0
  8  9  1  0
  9 10  2  0
 10 11  1  0
 11 12  1  0
 12 13  2  0
 13 14  1  0
 14 15  1  0
 14 16  2  0
 16 17  1  0
 17 18  1  0
 17 19  2  0
 10  3  1  0
 19 12  1  0
M  END
$$$$
