_rank14
     RDKit          3D

 19 20  0  0  0  0  0  0  0  0999 V2000
   23.1998   -1.8743  -13.8046 N   0  0  0  0  0  0  0  0  0  0  0  0
   23.6496   -1.4826  -12.8238 C   0  0  0  0  0  0  0  0  0  0  0  0
   24.2018   -1.0131  -11.5871 C   0  0  0  0  0  0  0  0  0  0  0  0
   25.4740   -0.4236  -11.5782 C   0  0  0  0  0  0  0  0  0  0  0  0
   26.0747    0.0392  -10.4327 C   0  0  0  0  0  0  0  0  0  0  0  0
   27.4192    0.6404  -10.5591 C   0  0  0  0  0  0  0  0  0  0  0  0
   27.4283    1.8698  -11.3006 N   0  0  0  0  0  0  0  0  0  0  0  0
   25.3803   -0.0938   -9.2686 C   0  0  0  0  0  0  0  0  0  0  0  0
   24.1422   -0.6645   -9.2598 C   0  0  0  0  0  0  0  0  0  0  0  0
   23.4979   -1.1499  -10.4232 C   0  0  0  0  0  0  0  0  0  0  0  0
   22.2419   -1.7100  -10.2958 O   0  0  0  0  0  0  0  0  0  0  0  0
   21.0839   -0.9712  -10.2639 C   0  0  0  0  0  0  0  0  0  0  0  0
   19.8482   -1.6243  -10.4318 C   0  0  0  0  0  0  0  0  0  0  0  0
   18.6820   -0.8995  -10.4061 C   0  0  0  0  0  0  0  0  0  0  0  0
   17.4869   -1.5261  -10.5677 F   0  0  0  0  0  0  0  0  0  0  0  0
   18.7216    0.4618  -10.2165 C   0  0  0  0  0  0  0  0  0  0  0  0
   19.9246    1.1049  -10.0521 C   0  0  0  0  0  0  0  0  0  0  0  0
   20.0157    2.4574   -9.8605 F   0  0  0  0  0  0  0  0  0  0  0  0
   21.0951    0.3903  -10.0764 C   0  0  0  0  0  0  0  0  0  0  0  0
  1  2  3  0
  2  3  1  0
  3  4  2  0
  4  5  1  0
  5  6  1  0
  6  7  1  6
  5  8  2  0
  8  9  1  0
  9 10  2  0
 10 11  1  0
 11 12  1  0
 12 13  2  0
 13 14  1  0
 14 15  1  0
 14 16  2  0
 16 17  1  0
 17 18  1  0
 17 19  2  0
 10  3  1  0
 19 12  1  0
M  END
$$$$
