_rank10
     RDKit          3D

 19 20  0  0  0  0  0  0  0  0999 V2000
   25.8052   -0.9609   -7.9545 N   0  0  0  0  0  0  0  0  0  0  0  0
   25.6658   -0.6778   -9.0582 C   0  0  0  0  0  0  0  0  0  0  0  0
   25.4871   -0.3006  -10.4295 C   0  0  0  0  0  0  0  0  0  0  0  0
   26.4626    0.4823  -11.0634 C   0  0  0  0  0  0  0  0  0  0  0  0
   26.3572    0.8934  -12.3699 C   0  0  0  0  0  0  0  0  0  0  0  0
   27.4554    1.7157  -12.9200 C   0  0  0  0  0  0  0  0  0  0  0  0
   28.3258    2.2545  -11.9133 N   0  0  0  0  0  0  0  0  0  0  0  0
   25.2450    0.5086  -13.0556 C   0  0  0  0  0  0  0  0  0  0  0  0
   24.2873   -0.2528  -12.4542 C   0  0  0  0  0  0  0  0  0  0  0  0
   24.3681   -0.6915  -11.1106 C   0  0  0  0  0  0  0  0  0  0  0  0
   23.3376   -1.4593  -10.6049 O   0  0  0  0  0  0  0  0  0  0  0  0
   22.0331   -1.0315  -10.5477 C   0  0  0  0  0  0  0  0  0  0  0  0
   21.7671    0.3458  -10.4305 C   0  0  0  0  0  0  0  0  0  0  0  0
   20.4687    0.7892  -10.3684 C   0  0  0  0  0  0  0  0  0  0  0  0
   20.2075    2.1182  -10.2553 F   0  0  0  0  0  0  0  0  0  0  0  0
   19.4307   -0.1110  -10.4205 C   0  0  0  0  0  0  0  0  0  0  0  0
   19.6840   -1.4565  -10.5347 C   0  0  0  0  0  0  0  0  0  0  0  0
   18.6852   -2.3911  -10.5904 F   0  0  0  0  0  0  0  0  0  0  0  0
   20.9770   -1.9098  -10.5973 C   0  0  0  0  0  0  0  0  0  0  0  0
  1  2  3  0
  2  3  1  0
  3  4  2  0
  4  5  1  0
  5  6  1  0
  6  7  1  6
  5  8  2  0
  8  9  1  0
  9 10  2  0
 10 11  1  0
 11 12  1  0
 12 13  2  0
 13 14  1  0
 14 15  1  0
 14 16  2  0
 16 17  1  0
 17 18  1  0
 17 19  2  0
 10  3  1  0
 19 12  1  0
M  END
$$$$
