_rank13
     RDKit          3D

 19 20  0  0  0  0  0  0  0  0999 V2000
   23.6438    1.4779   -9.0531 N   0  0  0  0  0  0  0  0  0  0  0  0
   23.1991    0.6297   -9.6858 C   0  0  0  0  0  0  0  0  0  0  0  0
   22.6470   -0.4454  -10.4567 C   0  0  0  0  0  0  0  0  0  0  0  0
   21.3240   -0.8504  -10.2288 C   0  0  0  0  0  0  0  0  0  0  0  0
   20.7287   -1.8790  -10.9178 C   0  0  0  0  0  0  0  0  0  0  0  0
   19.3271   -2.2074  -10.5824 C   0  0  0  0  0  0  0  0  0  0  0  0
   19.2023   -3.1460   -9.5031 N   0  0  0  0  0  0  0  0  0  0  0  0
   21.4809   -2.5156  -11.8581 C   0  0  0  0  0  0  0  0  0  0  0  0
   22.7686   -2.1340  -12.0922 C   0  0  0  0  0  0  0  0  0  0  0  0
   23.4086   -1.0786  -11.3989 C   0  0  0  0  0  0  0  0  0  0  0  0
   24.7182   -0.7786  -11.7188 O   0  0  0  0  0  0  0  0  0  0  0  0
   25.7159   -0.6531  -10.7825 C   0  0  0  0  0  0  0  0  0  0  0  0
   25.5931   -1.3290   -9.5538 C   0  0  0  0  0  0  0  0  0  0  0  0
   26.5800   -1.2109   -8.6060 C   0  0  0  0  0  0  0  0  0  0  0  0
   26.4653   -1.8619   -7.4186 F   0  0  0  0  0  0  0  0  0  0  0  0
   27.6859   -0.4336   -8.8572 C   0  0  0  0  0  0  0  0  0  0  0  0
   27.8115    0.2287  -10.0544 C   0  0  0  0  0  0  0  0  0  0  0  0
   28.8930    1.0139  -10.3510 F   0  0  0  0  0  0  0  0  0  0  0  0
   26.8315    0.1176  -11.0076 C   0  0  0  0  0  0  0  0  0  0  0  0
  1  2  3  0
  2  3  1  0
  3  4  2  0
  4  5  1  0
  5  6  1  0
  6  7  1  6
  5  8  2  0
  8  9  1  0
  9 10  2  0
 10 11  1  0
 11 12  1  0
 12 13  2  0
 13 14  1  0
 14 15  1  0
 14 16  2  0
 16 17  1  0
 17 18  1  0
 17 19  2  0
 10  3  1  0
 19 12  1  0
M  END
$$$$
