_rank19
     RDKit          3D

 19 20  0  0  0  0  0  0  0  0999 V2000
   26.4985   -1.0604   -7.9808 N   0  0  0  0  0  0  0  0  0  0  0  0
   26.3685   -0.6934   -9.0607 C   0  0  0  0  0  0  0  0  0  0  0  0
   26.2130   -0.2121  -10.4019 C   0  0  0  0  0  0  0  0  0  0  0  0
   27.1990    0.6160  -10.9574 C   0  0  0  0  0  0  0  0  0  0  0  0
   27.1157    1.1260  -12.2302 C   0  0  0  0  0  0  0  0  0  0  0  0
   28.2229    1.9868  -12.6970 C   0  0  0  0  0  0  0  0  0  0  0  0
   29.4669    1.2863  -12.8487 N   0  0  0  0  0  0  0  0  0  0  0  0
   26.0154    0.7959  -12.9621 C   0  0  0  0  0  0  0  0  0  0  0  0
   25.0478   -0.0082  -12.4371 C   0  0  0  0  0  0  0  0  0  0  0  0
   25.1059   -0.5486  -11.1299 C   0  0  0  0  0  0  0  0  0  0  0  0
   24.0671   -1.3518  -10.7020 O   0  0  0  0  0  0  0  0  0  0  0  0
   22.7635   -0.9247  -10.6234 C   0  0  0  0  0  0  0  0  0  0  0  0
   21.7663   -1.8341  -10.2234 C   0  0  0  0  0  0  0  0  0  0  0  0
   20.4581   -1.4237  -10.1434 C   0  0  0  0  0  0  0  0  0  0  0  0
   19.4922   -2.2985   -9.7576 F   0  0  0  0  0  0  0  0  0  0  0  0
   20.1234   -0.1267  -10.4535 C   0  0  0  0  0  0  0  0  0  0  0  0
   21.0923    0.7655  -10.8447 C   0  0  0  0  0  0  0  0  0  0  0  0
   20.8090    2.0664  -11.1636 F   0  0  0  0  0  0  0  0  0  0  0  0
   22.4017    0.3658  -10.9281 C   0  0  0  0  0  0  0  0  0  0  0  0
  1  2  3  0
  2  3  1  0
  3  4  2  0
  4  5  1  0
  5  6  1  0
  6  7  1  6
  5  8  2  0
  8  9  1  0
  9 10  2  0
 10 11  1  0
 11 12  1  0
 12 13  2  0
 13 14  1  0
 14 15  1  0
 14 16  2  0
 16 17  1  0
 17 18  1  0
 17 19  2  0
 10  3  1  0
 19 12  1  0
M  END
$$$$
