_rank10
     RDKit          3D

 18 20  0  0  0  0  0  0  0  0999 V2000
   25.9361   -1.0058   -7.8483 C   0  0  0  0  0  0  0  0  0  0  0  0
   26.6764    0.1204   -9.0186 S   0  0  1  0  0  6  0  0  0  0  0  0
   27.3304    1.2069   -8.2529 O   0  0  0  0  0  0  0  0  0  0  0  0
   27.7077   -0.6325   -9.8051 O   0  0  0  0  0  0  0  0  0  0  0  0
   25.3894    0.7286  -10.0584 C   0  0  1  0  0  0  0  0  0  0  0  0
   26.0434    1.2958  -11.3194 C   0  0  0  0  0  0  0  0  0  0  0  0
   26.4002    0.0625  -12.0978 C   0  0  0  0  0  0  0  0  0  0  0  0
   25.4490   -1.0319  -11.6175 C   0  0  0  0  0  0  0  0  0  0  0  0
   24.5485   -0.3628  -10.6520 C   0  0  2  0  0  0  0  0  0  0  0  0
   23.4697    0.2921  -11.3969 N   0  0  0  0  0  0  0  0  0  0  0  0
   22.3251    0.1396  -10.5614 C   0  0  0  0  0  0  0  0  0  0  0  0
   21.0826    0.7458  -10.6597 C   0  0  0  0  0  0  0  0  0  0  0  0
   20.1221    0.4283   -9.7115 C   0  0  0  0  0  0  0  0  0  0  0  0
   18.9181    1.0159   -9.8071 F   0  0  0  0  0  0  0  0  0  0  0  0
   20.3908   -0.4676   -8.6941 C   0  0  0  0  0  0  0  0  0  0  0  0
   21.6279   -1.0644   -8.6050 C   0  0  0  0  0  0  0  0  0  0  0  0
   22.6113   -0.7571   -9.5525 C   0  0  0  0  0  0  0  0  0  0  0  0
   23.9216   -1.1811   -9.7292 O   0  0  0  0  0  0  0  0  0  0  0  0
  2  1  1  1
  2  3  2  0
  2  4  2  0
  5  2  1  1
  5  6  1  0
  6  7  1  6
  7  8  1  1
  8  9  1  1
  9 10  1  6
 10 11  1  0
 11 12  2  0
 12 13  1  0
 13 14  1  0
 13 15  2  0
 15 16  1  0
 16 17  2  0
 17 18  1  0
  9  5  1  0
 17 11  1  0
  9 18  1  0
M  END
$$$$
