_rank13
     RDKit          3D

 18 20  0  0  0  0  0  0  0  0999 V2000
   22.0925   -1.7339  -12.9526 C   0  0  0  0  0  0  0  0  0  0  0  0
   21.3192   -0.2742  -12.2763 S   0  0  1  0  0  6  0  0  0  0  0  0
   21.5858    0.8516  -13.2015 O   0  0  0  0  0  0  0  0  0  0  0  0
   19.8422   -0.5211  -12.1962 O   0  0  0  0  0  0  0  0  0  0  0  0
   22.0140    0.0047  -10.6805 C   0  0  1  0  0  0  0  0  0  0  0  0
   20.8631    0.0299   -9.6734 C   0  0  0  0  0  0  0  0  0  0  0  0
   20.5181   -1.4232   -9.5198 C   0  0  0  0  0  0  0  0  0  0  0  0
   21.7783   -2.2003   -9.8955 C   0  0  0  0  0  0  0  0  0  0  0  0
   22.8009   -1.1660  -10.1695 C   0  0  2  0  0  0  0  0  0  0  0  0
   23.3977   -0.7513   -8.8969 N   0  0  0  0  0  0  0  0  0  0  0  0
   24.7662   -0.5107   -9.2142 C   0  0  0  0  0  0  0  0  0  0  0  0
   25.7466    0.1041   -8.4515 C   0  0  0  0  0  0  0  0  0  0  0  0
   27.0191    0.2192   -8.9899 C   0  0  0  0  0  0  0  0  0  0  0  0
   27.9691    0.8150   -8.2504 F   0  0  0  0  0  0  0  0  0  0  0  0
   27.3076   -0.2641  -10.2521 C   0  0  0  0  0  0  0  0  0  0  0  0
   26.3272   -0.8731  -11.0018 C   0  0  0  0  0  0  0  0  0  0  0  0
   25.0360   -0.9991  -10.4762 C   0  0  0  0  0  0  0  0  0  0  0  0
   23.8611   -1.5488  -10.9717 O   0  0  0  0  0  0  0  0  0  0  0  0
  2  1  1  6
  2  3  2  0
  2  4  2  0
  5  2  1  6
  5  6  1  0
  6  7  1  6
  7  8  1  1
  8  9  1  1
  9 10  1  1
 10 11  1  0
 11 12  2  0
 12 13  1  0
 13 14  1  0
 13 15  2  0
 15 16  1  0
 16 17  2  0
 17 18  1  0
  9  5  1  0
 17 11  1  0
  9 18  1  0
M  END
$$$$
