_rank7
     RDKit          3D

 18 20  0  0  0  0  0  0  0  0999 V2000
   27.6603   -1.1228   -9.9544 C   0  0  0  0  0  0  0  0  0  0  0  0
   26.6014   -0.0991   -8.9459 S   0  0  1  0  0  6  0  0  0  0  0  0
   25.9778   -0.9643   -7.9178 O   0  0  0  0  0  0  0  0  0  0  0  0
   27.4518    0.9413   -8.2800 O   0  0  0  0  0  0  0  0  0  0  0  0
   25.4006    0.6329  -10.0087 C   0  0  1  0  0  0  0  0  0  0  0  0
   26.1527    1.4253  -11.0791 C   0  0  0  0  0  0  0  0  0  0  0  0
   26.6508    0.3529  -12.0044 C   0  0  0  0  0  0  0  0  0  0  0  0
   25.7115   -0.8373  -11.8185 C   0  0  0  0  0  0  0  0  0  0  0  0
   24.6826   -0.3700  -10.8627 C   0  0  2  0  0  0  0  0  0  0  0  0
   23.6553    0.3653  -11.6055 N   0  0  0  0  0  0  0  0  0  0  0  0
   22.4391    0.0370  -10.9387 C   0  0  0  0  0  0  0  0  0  0  0  0
   21.1845    0.6101  -11.0740 C   0  0  0  0  0  0  0  0  0  0  0  0
   20.1479    0.1063  -10.3034 C   0  0  0  0  0  0  0  0  0  0  0  0
   18.9320    0.6619  -10.4347 F   0  0  0  0  0  0  0  0  0  0  0  0
   20.3543   -0.9387   -9.4228 C   0  0  0  0  0  0  0  0  0  0  0  0
   21.6040   -1.5012   -9.2956 C   0  0  0  0  0  0  0  0  0  0  0  0
   22.6638   -1.0069  -10.0648 C   0  0  0  0  0  0  0  0  0  0  0  0
   24.0053   -1.3520  -10.1618 O   0  0  0  0  0  0  0  0  0  0  0  0
  2  1  1  6
  2  3  2  0
  2  4  2  0
  5  2  1  1
  5  6  1  0
  6  7  1  6
  7  8  1  1
  8  9  1  1
  9 10  1  6
 10 11  1  0
 11 12  2  0
 12 13  1  0
 13 14  1  0
 13 15  2  0
 15 16  1  0
 16 17  2  0
 17 18  1  0
  9  5  1  0
 17 11  1  0
  9 18  1  0
M  END
$$$$
