_rank20
     RDKit          3D

 18 20  0  0  0  0  0  0  0  0999 V2000
   20.9362   -0.4936   -9.5008 C   0  0  0  0  0  0  0  0  0  0  0  0
   21.6043   -1.8791  -10.4064 S   0  0  1  0  0  6  0  0  0  0  0  0
   21.8952   -2.9594   -9.4353 O   0  0  0  0  0  0  0  0  0  0  0  0
   20.5654   -2.3457  -11.3821 O   0  0  0  0  0  0  0  0  0  0  0  0
   23.0600   -1.3234  -11.2307 C   0  0  1  0  0  0  0  0  0  0  0  0
   22.6647   -0.9382  -12.6571 C   0  0  0  0  0  0  0  0  0  0  0  0
   21.9880    0.3892  -12.4724 C   0  0  0  0  0  0  0  0  0  0  0  0
   22.5424    0.9705  -11.1732 C   0  0  0  0  0  0  0  0  0  0  0  0
   23.5584   -0.0046  -10.7178 C   0  0  2  0  0  0  0  0  0  0  0  0
   24.8168    0.2724  -11.4160 N   0  0  0  0  0  0  0  0  0  0  0  0
   25.8235   -0.0053  -10.4460 C   0  0  0  0  0  0  0  0  0  0  0  0
   27.1940   -0.1225  -10.6157 C   0  0  0  0  0  0  0  0  0  0  0  0
   27.9705   -0.4008   -9.5013 C   0  0  0  0  0  0  0  0  0  0  0  0
   29.2987   -0.5142   -9.6661 F   0  0  0  0  0  0  0  0  0  0  0  0
   27.3988   -0.5581   -8.2529 C   0  0  0  0  0  0  0  0  0  0  0  0
   26.0367   -0.4399   -8.0946 C   0  0  0  0  0  0  0  0  0  0  0  0
   25.2353   -0.1592   -9.2073 C   0  0  0  0  0  0  0  0  0  0  0  0
   23.8674    0.0158   -9.3694 O   0  0  0  0  0  0  0  0  0  0  0  0
  2  1  1  1
  2  3  2  0
  2  4  2  0
  5  2  1  1
  5  6  1  0
  6  7  1  6
  7  8  1  1
  8  9  1  1
  9 10  1  6
 10 11  1  0
 11 12  2  0
 12 13  1  0
 13 14  1  0
 13 15  2  0
 15 16  1  0
 16 17  2  0
 17 18  1  0
  9  5  1  0
 17 11  1  0
  9 18  1  0
M  END
$$$$
