_rank15
     RDKit          3D

 18 20  0  0  0  0  0  0  0  0999 V2000
   21.9499   -3.8159  -10.3892 C   0  0  0  0  0  0  0  0  0  0  0  0
   21.1526   -2.2436  -10.6685 S   0  0  1  0  0  6  0  0  0  0  0  0
   20.0647   -2.4537  -11.6518 O   0  0  0  0  0  0  0  0  0  0  0  0
   20.5718   -1.7753   -9.3676 O   0  0  0  0  0  0  0  0  0  0  0  0
   22.3767   -1.1257  -11.2680 C   0  0  1  0  0  0  0  0  0  0  0  0
   21.7142   -0.2368  -12.3217 C   0  0  0  0  0  0  0  0  0  0  0  0
   20.9130    0.7265  -11.4945 C   0  0  0  0  0  0  0  0  0  0  0  0
   21.5888    0.7736  -10.1255 C   0  0  0  0  0  0  0  0  0  0  0  0
   22.7794   -0.0963  -10.2537 C   0  0  2  0  0  0  0  0  0  0  0  0
   23.8656    0.6847  -10.8520 N   0  0  0  0  0  0  0  0  0  0  0  0
   25.0405    0.2026  -10.2051 C   0  0  0  0  0  0  0  0  0  0  0  0
   26.3703    0.4265  -10.5251 C   0  0  0  0  0  0  0  0  0  0  0  0
   27.3429   -0.1617   -9.7311 C   0  0  0  0  0  0  0  0  0  0  0  0
   28.6316    0.0555  -10.0415 F   0  0  0  0  0  0  0  0  0  0  0  0
   27.0015   -0.9507   -8.6490 C   0  0  0  0  0  0  0  0  0  0  0  0
   25.6780   -1.1671   -8.3394 C   0  0  0  0  0  0  0  0  0  0  0  0
   24.6809   -0.5822   -9.1287 C   0  0  0  0  0  0  0  0  0  0  0  0
   23.2936   -0.6098   -9.0764 O   0  0  0  0  0  0  0  0  0  0  0  0
  2  1  1  1
  2  3  2  0
  2  4  2  0
  5  2  1  1
  5  6  1  0
  6  7  1  6
  7  8  1  1
  8  9  1  1
  9 10  1  6
 10 11  1  0
 11 12  2  0
 12 13  1  0
 13 14  1  0
 13 15  2  0
 15 16  1  0
 16 17  2  0
 17 18  1  0
  9  5  1  0
 17 11  1  0
  9 18  1  0
M  END
$$$$
