_rank1
     RDKit          3D

 18 20  0  0  0  0  0  0  0  0999 V2000
   25.9782   -0.8364   -8.1099 C   0  0  0  0  0  0  0  0  0  0  0  0
   26.7513    0.2414   -9.3043 S   0  0  1  0  0  6  0  0  0  0  0  0
   27.5277    1.2610   -8.5613 O   0  0  0  0  0  0  0  0  0  0  0  0
   27.6789   -0.5821  -10.1471 O   0  0  0  0  0  0  0  0  0  0  0  0
   25.4701    0.9658  -10.2745 C   0  0  1  0  0  0  0  0  0  0  0  0
   26.1354    1.7559  -11.4026 C   0  0  0  0  0  0  0  0  0  0  0  0
   26.5641    0.6811  -12.3592 C   0  0  0  0  0  0  0  0  0  0  0  0
   25.6456   -0.5109  -12.0972 C   0  0  0  0  0  0  0  0  0  0  0  0
   24.6917   -0.0426  -11.0669 C   0  0  2  0  0  0  0  0  0  0  0  0
   23.6082    0.6869  -11.7315 N   0  0  0  0  0  0  0  0  0  0  0  0
   22.4478    0.3580  -10.9719 C   0  0  0  0  0  0  0  0  0  0  0  0
   21.1848    0.9271  -11.0126 C   0  0  0  0  0  0  0  0  0  0  0  0
   20.2119    0.4235  -10.1627 C   0  0  0  0  0  0  0  0  0  0  0  0
   18.9879    0.9753  -10.2023 F   0  0  0  0  0  0  0  0  0  0  0  0
   20.4886   -0.6173   -9.2965 C   0  0  0  0  0  0  0  0  0  0  0  0
   21.7461   -1.1758   -9.2636 C   0  0  0  0  0  0  0  0  0  0  0  0
   22.7422   -0.6817  -10.1138 C   0  0  0  0  0  0  0  0  0  0  0  0
   24.0733   -1.0235  -10.3123 O   0  0  0  0  0  0  0  0  0  0  0  0
  2  1  1  1
  2  3  2  0
  2  4  2  0
  5  2  1  1
  5  6  1  0
  6  7  1  6
  7  8  1  1
  8  9  1  1
  9 10  1  6
 10 11  1  0
 11 12  2  0
 12 13  1  0
 13 14  1  0
 13 15  2  0
 15 16  1  0
 16 17  2  0
 17 18  1  0
  9  5  1  0
 17 11  1  0
  9 18  1  0
M  END
$$$$
