_rank18
     RDKit          3D

 18 20  0  0  0  0  0  0  0  0999 V2000
   21.4850   -3.0648   -9.0419 C   0  0  0  0  0  0  0  0  0  0  0  0
   21.2985   -1.8137  -10.3013 S   0  0  1  0  0  6  0  0  0  0  0  0
   20.2432   -2.2650  -11.2379 O   0  0  0  0  0  0  0  0  0  0  0  0
   20.8700   -0.5398   -9.6362 O   0  0  0  0  0  0  0  0  0  0  0  0
   22.8576   -1.6299  -11.1032 C   0  0  1  0  0  0  0  0  0  0  0  0
   22.6017   -1.6074  -12.6110 C   0  0  0  0  0  0  0  0  0  0  0  0
   22.0640   -0.2246  -12.8409 C   0  0  0  0  0  0  0  0  0  0  0  0
   22.5921    0.6321  -11.6918 C   0  0  0  0  0  0  0  0  0  0  0  0
   23.4628   -0.2714  -10.9067 C   0  0  2  0  0  0  0  0  0  0  0  0
   24.7872   -0.3037  -11.5333 N   0  0  0  0  0  0  0  0  0  0  0  0
   25.6913   -0.3994  -10.4355 C   0  0  0  0  0  0  0  0  0  0  0  0
   27.0488   -0.6783  -10.4414 C   0  0  0  0  0  0  0  0  0  0  0  0
   27.7150   -0.7155   -9.2260 C   0  0  0  0  0  0  0  0  0  0  0  0
   29.0307   -0.9859   -9.2321 F   0  0  0  0  0  0  0  0  0  0  0  0
   27.0486   -0.4816   -8.0381 C   0  0  0  0  0  0  0  0  0  0  0  0
   25.7002   -0.2054   -8.0427 C   0  0  0  0  0  0  0  0  0  0  0  0
   25.0094   -0.1633   -9.2594 C   0  0  0  0  0  0  0  0  0  0  0  0
   23.6827    0.0820   -9.5873 O   0  0  0  0  0  0  0  0  0  0  0  0
  2  1  1  1
  2  3  2  0
  2  4  2  0
  5  2  1  1
  5  6  1  0
  6  7  1  6
  7  8  1  1
  8  9  1  1
  9 10  1  6
 10 11  1  0
 11 12  2  0
 12 13  1  0
 13 14  1  0
 13 15  2  0
 15 16  1  0
 16 17  2  0
 17 18  1  0
  9  5  1  0
 17 11  1  0
  9 18  1  0
M  END
$$$$
