_rank12
     RDKit          3D

 18 20  0  0  0  0  0  0  0  0999 V2000
   27.3803   -0.3737  -11.2533 C   0  0  0  0  0  0  0  0  0  0  0  0
   26.8387   -1.1647   -9.7476 S   0  0  1  0  0  6  0  0  0  0  0  0
   26.7290   -2.6182  -10.0116 O   0  0  0  0  0  0  0  0  0  0  0  0
   27.8756   -0.9218   -8.6917 O   0  0  0  0  0  0  0  0  0  0  0  0
   25.2871   -0.4561   -9.3031 C   0  0  1  0  0  0  0  0  0  0  0  0
   25.5704    0.8721   -8.5994 C   0  0  0  0  0  0  0  0  0  0  0  0
   25.9206    1.7878   -9.7365 C   0  0  0  0  0  0  0  0  0  0  0  0
   25.2563    1.1955  -10.9779 C   0  0  0  0  0  0  0  0  0  0  0  0
   24.4992    0.0225  -10.4866 C   0  0  2  0  0  0  0  0  0  0  0  0
   23.2053    0.4831   -9.9751 N   0  0  0  0  0  0  0  0  0  0  0  0
   22.2988   -0.5588  -10.3276 C   0  0  0  0  0  0  0  0  0  0  0  0
   20.9921   -0.7598   -9.9120 C   0  0  0  0  0  0  0  0  0  0  0  0
   20.3107   -1.8626  -10.4039 C   0  0  0  0  0  0  0  0  0  0  0  0
   19.0442   -2.0571  -10.0008 F   0  0  0  0  0  0  0  0  0  0  0  0
   20.9132   -2.7406  -11.2848 C   0  0  0  0  0  0  0  0  0  0  0  0
   22.2114   -2.5323  -11.6917 C   0  0  0  0  0  0  0  0  0  0  0  0
   22.9165   -1.4248  -11.2065 C   0  0  0  0  0  0  0  0  0  0  0  0
   24.2046   -0.9533  -11.4222 O   0  0  0  0  0  0  0  0  0  0  0  0
  2  1  1  6
  2  3  2  0
  2  4  2  0
  5  2  1  6
  5  6  1  0
  6  7  1  6
  7  8  1  1
  8  9  1  1
  9 10  1  1
 10 11  1  0
 11 12  2  0
 12 13  1  0
 13 14  1  0
 13 15  2  0
 15 16  1  0
 16 17  2  0
 17 18  1  0
  9  5  1  0
 17 11  1  0
  9 18  1  0
M  END
$$$$
