_rank9
     RDKit          3D

 18 20  0  0  0  0  0  0  0  0999 V2000
   28.0889   -0.1140   -9.6857 C   0  0  0  0  0  0  0  0  0  0  0  0
   26.5349   -0.3400   -8.8371 S   0  0  1  0  0  6  0  0  0  0  0  0
   26.2663   -1.7948   -8.7602 O   0  0  0  0  0  0  0  0  0  0  0  0
   26.6713    0.2206   -7.4528 O   0  0  0  0  0  0  0  0  0  0  0  0
   25.2970    0.5116   -9.7588 C   0  0  1  0  0  0  0  0  0  0  0  0
   26.0018    1.5622  -10.6184 C   0  0  0  0  0  0  0  0  0  0  0  0
   26.5920    0.7458  -11.7316 C   0  0  0  0  0  0  0  0  0  0  0  0
   25.7428   -0.5204  -11.8251 C   0  0  0  0  0  0  0  0  0  0  0  0
   24.6685   -0.3382  -10.8235 C   0  0  2  0  0  0  0  0  0  0  0  0
   23.5990    0.4618  -11.4267 N   0  0  0  0  0  0  0  0  0  0  0  0
   22.4020   -0.0844  -10.8787 C   0  0  0  0  0  0  0  0  0  0  0  0
   21.1097    0.4138  -10.9283 C   0  0  0  0  0  0  0  0  0  0  0  0
   20.1035   -0.3126  -10.3101 C   0  0  0  0  0  0  0  0  0  0  0  0
   18.8512    0.1706  -10.3583 F   0  0  0  0  0  0  0  0  0  0  0  0
   20.3761   -1.5017   -9.6607 C   0  0  0  0  0  0  0  0  0  0  0  0
   21.6628   -1.9883   -9.6169 C   0  0  0  0  0  0  0  0  0  0  0  0
   22.6928   -1.2698  -10.2350 C   0  0  0  0  0  0  0  0  0  0  0  0
   24.0577   -1.4908  -10.3624 O   0  0  0  0  0  0  0  0  0  0  0  0
  2  1  1  6
  2  3  2  0
  2  4  2  0
  5  2  1  6
  5  6  1  0
  6  7  1  6
  7  8  1  1
  8  9  1  1
  9 10  1  6
 10 11  1  0
 11 12  2  0
 12 13  1  0
 13 14  1  0
 13 15  2  0
 15 16  1  0
 16 17  2  0
 17 18  1  0
  9  5  1  0
 17 11  1  0
  9 18  1  0
M  END
$$$$
