_rank14
     RDKit          3D

 18 20  0  0  0  0  0  0  0  0999 V2000
   19.9464   -2.4559  -11.0963 C   0  0  0  0  0  0  0  0  0  0  0  0
   21.1553   -1.6845  -10.0335 S   0  0  1  0  0  6  0  0  0  0  0  0
   20.6525   -0.3379   -9.6752 O   0  0  0  0  0  0  0  0  0  0  0  0
   21.2892   -2.5180   -8.7941 O   0  0  0  0  0  0  0  0  0  0  0  0
   22.6740   -1.6058  -10.9251 C   0  0  1  0  0  0  0  0  0  0  0  0
   22.3415   -1.7127  -12.4142 C   0  0  0  0  0  0  0  0  0  0  0  0
   21.8155   -0.3449  -12.7410 C   0  0  0  0  0  0  0  0  0  0  0  0
   22.4158    0.5997  -11.7015 C   0  0  0  0  0  0  0  0  0  0  0  0
   23.3107   -0.2481  -10.8823 C   0  0  2  0  0  0  0  0  0  0  0  0
   24.6005   -0.3640  -11.5683 N   0  0  0  0  0  0  0  0  0  0  0  0
   25.5580   -0.3802  -10.5127 C   0  0  0  0  0  0  0  0  0  0  0  0
   26.9087   -0.6869  -10.5607 C   0  0  0  0  0  0  0  0  0  0  0  0
   27.6357   -0.6294   -9.3815 C   0  0  0  0  0  0  0  0  0  0  0  0
   28.9448   -0.9268   -9.4284 F   0  0  0  0  0  0  0  0  0  0  0  0
   27.0350   -0.2765   -8.1879 C   0  0  0  0  0  0  0  0  0  0  0  0
   25.6929    0.0264   -8.1505 C   0  0  0  0  0  0  0  0  0  0  0  0
   24.9414   -0.0258   -9.3303 C   0  0  0  0  0  0  0  0  0  0  0  0
   23.6038    0.2171   -9.6127 O   0  0  0  0  0  0  0  0  0  0  0  0
  2  1  1  6
  2  3  2  0
  2  4  2  0
  5  2  1  1
  5  6  1  0
  6  7  1  6
  7  8  1  1
  8  9  1  1
  9 10  1  6
 10 11  1  0
 11 12  2  0
 12 13  1  0
 13 14  1  0
 13 15  2  0
 15 16  1  0
 16 17  2  0
 17 18  1  0
  9  5  1  0
 17 11  1  0
  9 18  1  0
M  END
$$$$
