_rank8
     RDKit          3D

 18 20  0  0  0  0  0  0  0  0999 V2000
   28.1180    0.6472   -9.4345 C   0  0  0  0  0  0  0  0  0  0  0  0
   26.4897    0.0798   -8.9734 S   0  0  1  0  0  6  0  0  0  0  0  0
   26.5052   -1.4015   -8.9810 O   0  0  0  0  0  0  0  0  0  0  0  0
   26.1968    0.5730   -7.5878 O   0  0  0  0  0  0  0  0  0  0  0  0
   25.3471    0.7335  -10.1457 C   0  0  1  0  0  0  0  0  0  0  0  0
   26.1553    1.4505  -11.2284 C   0  0  0  0  0  0  0  0  0  0  0  0
   26.6989    0.3170  -12.0492 C   0  0  0  0  0  0  0  0  0  0  0  0
   25.7491   -0.8590  -11.8297 C   0  0  0  0  0  0  0  0  0  0  0  0
   24.6727   -0.3279  -10.9637 C   0  0  2  0  0  0  0  0  0  0  0  0
   23.6868    0.3517  -11.8086 N   0  0  0  0  0  0  0  0  0  0  0  0
   22.4370    0.0687  -11.1846 C   0  0  0  0  0  0  0  0  0  0  0  0
   21.1921    0.6286  -11.4247 C   0  0  0  0  0  0  0  0  0  0  0  0
   20.1159    0.1780  -10.6757 C   0  0  0  0  0  0  0  0  0  0  0  0
   18.9095    0.7209  -10.9086 F   0  0  0  0  0  0  0  0  0  0  0  0
   20.2743   -0.8024   -9.7147 C   0  0  0  0  0  0  0  0  0  0  0  0
   21.5146   -1.3524   -9.4837 C   0  0  0  0  0  0  0  0  0  0  0  0
   22.6140   -0.9111  -10.2293 C   0  0  0  0  0  0  0  0  0  0  0  0
   23.9581   -1.2597  -10.2321 O   0  0  0  0  0  0  0  0  0  0  0  0
  2  1  1  6
  2  3  2  0
  2  4  2  0
  5  2  1  1
  5  6  1  0
  6  7  1  6
  7  8  1  1
  8  9  1  1
  9 10  1  6
 10 11  1  0
 11 12  2  0
 12 13  1  0
 13 14  1  0
 13 15  2  0
 15 16  1  0
 16 17  2  0
 17 18  1  0
  9  5  1  0
 17 11  1  0
  9 18  1  0
M  END
$$$$
