_rank19
     RDKit          3D

 18 20  0  0  0  0  0  0  0  0999 V2000
   21.8284   -3.3110   -9.2233 C   0  0  0  0  0  0  0  0  0  0  0  0
   21.5086   -1.8876  -10.2517 S   0  0  1  0  0  6  0  0  0  0  0  0
   20.4025   -2.2328  -11.1747 O   0  0  0  0  0  0  0  0  0  0  0  0
   21.0886   -0.7537   -9.3646 O   0  0  0  0  0  0  0  0  0  0  0  0
   22.9973   -1.5119  -11.1176 C   0  0  1  0  0  0  0  0  0  0  0  0
   22.6311   -1.2699  -12.5828 C   0  0  0  0  0  0  0  0  0  0  0  0
   22.0303    0.1058  -12.5571 C   0  0  0  0  0  0  0  0  0  0  0  0
   22.6110    0.7992  -11.3262 C   0  0  0  0  0  0  0  0  0  0  0  0
   23.5677   -0.1733  -10.7521 C   0  0  2  0  0  0  0  0  0  0  0  0
   24.8431   -0.0486  -11.4632 N   0  0  0  0  0  0  0  0  0  0  0  0
   25.8278   -0.2701  -10.4570 C   0  0  0  0  0  0  0  0  0  0  0  0
   27.1902   -0.4825  -10.5972 C   0  0  0  0  0  0  0  0  0  0  0  0
   27.9445   -0.6754   -9.4500 C   0  0  0  0  0  0  0  0  0  0  0  0
   29.2648   -0.8812   -9.5863 F   0  0  0  0  0  0  0  0  0  0  0  0
   27.3591   -0.6573   -8.1982 C   0  0  0  0  0  0  0  0  0  0  0  0
   26.0053   -0.4456   -8.0693 C   0  0  0  0  0  0  0  0  0  0  0  0
   25.2262   -0.2488   -9.2154 C   0  0  0  0  0  0  0  0  0  0  0  0
   23.8712   -0.0169   -9.4113 O   0  0  0  0  0  0  0  0  0  0  0  0
  2  1  1  1
  2  3  2  0
  2  4  2  0
  5  2  1  1
  5  6  1  0
  6  7  1  6
  7  8  1  1
  8  9  1  1
  9 10  1  6
 10 11  1  0
 11 12  2  0
 12 13  1  0
 13 14  1  0
 13 15  2  0
 15 16  1  0
 16 17  2  0
 17 18  1  0
  9  5  1  0
 17 11  1  0
  9 18  1  0
M  END
$$$$
