_rank11
     RDKit          3D

 12 13  0  0  0  0  0  0  0  0999 V2000
   27.6164    0.0531   -7.6343 N   0  0  0  0  0  0  0  0  0  0  0  0
   26.8894   -0.0322   -8.5514 C   0  0  0  0  0  0  0  0  0  0  0  0
   25.9917   -0.1582   -9.6639 C   0  0  0  0  0  0  0  0  0  0  0  0
   26.4355    0.1095  -10.9547 C   0  0  0  0  0  0  0  0  0  0  0  0
   25.5524   -0.0192  -12.0066 C   0  0  0  0  0  0  0  0  0  0  0  0
   25.9788    0.2401  -13.2654 F   0  0  0  0  0  0  0  0  0  0  0  0
   24.2545   -0.4096  -11.7495 C   0  0  0  0  0  0  0  0  0  0  0  0
   23.7930   -0.6799  -10.4794 C   0  0  0  0  0  0  0  0  0  0  0  0
   22.3813   -1.1018  -10.2241 C   0  0  1  0  0  0  0  0  0  0  0  0
   21.3315   -0.2374  -10.7091 C   0  0  0  0  0  0  0  0  0  0  0  0
   21.6348   -1.4222  -11.4401 O   0  0  0  0  0  0  0  0  0  0  0  0
   24.6873   -0.5471   -9.4360 C   0  0  0  0  0  0  0  0  0  0  0  0
  1  2  3  0
  2  3  1  0
  3  4  2  0
  4  5  1  0
  5  6  1  0
  5  7  2  0
  7  8  1  0
  9  8  1  6
  9 10  1  0
 10 11  1  1
  8 12  2  0
 12  3  1  0
 11  9  1  0
M  END
$$$$
