_rank19
     RDKit          3D

 12 13  0  0  0  0  0  0  0  0999 V2000
   28.2653    0.0182  -11.3510 N   0  0  0  0  0  0  0  0  0  0  0  0
   27.1824   -0.1958  -10.9530 C   0  0  0  0  0  0  0  0  0  0  0  0
   25.8679   -0.4704  -10.4470 C   0  0  0  0  0  0  0  0  0  0  0  0
   25.6258   -0.4442   -9.0776 C   0  0  0  0  0  0  0  0  0  0  0  0
   24.3532   -0.7118   -8.6173 C   0  0  0  0  0  0  0  0  0  0  0  0
   24.1116   -0.6878   -7.2851 F   0  0  0  0  0  0  0  0  0  0  0  0
   23.3566   -0.9978   -9.5273 C   0  0  0  0  0  0  0  0  0  0  0  0
   23.5733   -1.0293  -10.8879 C   0  0  0  0  0  0  0  0  0  0  0  0
   22.4775   -1.3418  -11.8562 C   0  0  1  0  0  0  0  0  0  0  0  0
   21.1744   -1.6405  -11.3111 C   0  0  0  0  0  0  0  0  0  0  0  0
   21.4035   -0.3493  -11.8684 O   0  0  0  0  0  0  0  0  0  0  0  0
   24.8515   -0.7596  -11.3347 C   0  0  0  0  0  0  0  0  0  0  0  0
  1  2  3  0
  2  3  1  0
  3  4  2  0
  4  5  1  0
  5  6  1  0
  5  7  2  0
  7  8  1  0
  9  8  1  1
  9 10  1  0
 10 11  1  1
  8 12  2  0
 12  3  1  0
 11  9  1  0
M  END
$$$$
