_rank5
     RDKit          3D

 12 13  0  0  0  0  0  0  0  0999 V2000
   27.4602   -0.2053   -7.5787 N   0  0  0  0  0  0  0  0  0  0  0  0
   26.8902   -0.1970   -8.6043 C   0  0  0  0  0  0  0  0  0  0  0  0
   26.1731   -0.1771   -9.8472 C   0  0  0  0  0  0  0  0  0  0  0  0
   26.8087    0.2311  -11.0152 C   0  0  0  0  0  0  0  0  0  0  0  0
   26.0968    0.2410  -12.1967 C   0  0  0  0  0  0  0  0  0  0  0  0
   26.7104    0.6374  -13.3369 F   0  0  0  0  0  0  0  0  0  0  0  0
   24.7750   -0.1538  -12.1872 C   0  0  0  0  0  0  0  0  0  0  0  0
   24.1250   -0.5618  -11.0426 C   0  0  0  0  0  0  0  0  0  0  0  0
   22.6910   -0.9857  -11.0560 C   0  0  1  0  0  0  0  0  0  0  0  0
   21.9646   -0.9112   -9.8105 C   0  0  0  0  0  0  0  0  0  0  0  0
   21.7537    0.1043  -10.7875 O   0  0  0  0  0  0  0  0  0  0  0  0
   24.8493   -0.5669   -9.8673 C   0  0  0  0  0  0  0  0  0  0  0  0
  1  2  3  0
  2  3  1  0
  3  4  2  0
  4  5  1  0
  5  6  1  0
  5  7  2  0
  7  8  1  0
  9  8  1  1
  9 10  1  0
 10 11  1  1
  8 12  2  0
 12  3  1  0
 11  9  1  0
M  END
$$$$
