_rank9
     RDKit          3D

 12 13  0  0  0  0  0  0  0  0999 V2000
   27.3376    0.1584   -7.6856 N   0  0  0  0  0  0  0  0  0  0  0  0
   26.6811    0.0547   -8.6526 C   0  0  0  0  0  0  0  0  0  0  0  0
   25.8725   -0.0478   -9.8337 C   0  0  0  0  0  0  0  0  0  0  0  0
   26.3895    0.3248  -11.0701 C   0  0  0  0  0  0  0  0  0  0  0  0
   25.5913    0.2166  -12.1900 C   0  0  0  0  0  0  0  0  0  0  0  0
   26.0893    0.5778  -13.3962 F   0  0  0  0  0  0  0  0  0  0  0  0
   24.3032   -0.2579  -12.0528 C   0  0  0  0  0  0  0  0  0  0  0  0
   23.7701   -0.6328  -10.8385 C   0  0  0  0  0  0  0  0  0  0  0  0
   22.3706   -1.1446  -10.7135 C   0  0  1  0  0  0  0  0  0  0  0  0
   21.3308   -0.1782  -10.4507 C   0  0  0  0  0  0  0  0  0  0  0  0
   21.4785   -0.6813  -11.7756 O   0  0  0  0  0  0  0  0  0  0  0  0
   24.5799   -0.5194   -9.7261 C   0  0  0  0  0  0  0  0  0  0  0  0
  1  2  3  0
  2  3  1  0
  3  4  2  0
  4  5  1  0
  5  6  1  0
  5  7  2  0
  7  8  1  0
  9  8  1  6
  9 10  1  0
 10 11  1  1
  8 12  2  0
 12  3  1  0
 11  9  1  0
M  END
$$$$
