_rank20
     RDKit          3D

 12 13  0  0  0  0  0  0  0  0999 V2000
   28.9673    1.3590   -7.8767 N   0  0  0  0  0  0  0  0  0  0  0  0
   28.1023    0.7207   -8.3473 C   0  0  0  0  0  0  0  0  0  0  0  0
   27.0405   -0.0703   -8.9004 C   0  0  0  0  0  0  0  0  0  0  0  0
   26.9252   -1.4163   -8.5692 C   0  0  0  0  0  0  0  0  0  0  0  0
   25.8953   -2.1544   -9.1148 C   0  0  0  0  0  0  0  0  0  0  0  0
   25.7781   -3.4652   -8.7959 F   0  0  0  0  0  0  0  0  0  0  0  0
   25.0089   -1.5376   -9.9731 C   0  0  0  0  0  0  0  0  0  0  0  0
   25.1036   -0.2060  -10.3153 C   0  0  0  0  0  0  0  0  0  0  0  0
   24.1309    0.4419  -11.2482 C   0  0  1  0  0  0  0  0  0  0  0  0
   24.5096    0.5430  -12.6377 C   0  0  0  0  0  0  0  0  0  0  0  0
   23.5839   -0.4695  -12.2526 O   0  0  0  0  0  0  0  0  0  0  0  0
   26.1389    0.5207   -9.7622 C   0  0  0  0  0  0  0  0  0  0  0  0
  1  2  3  0
  2  3  1  0
  3  4  2  0
  4  5  1  0
  5  6  1  0
  5  7  2  0
  7  8  1  0
  9  8  1  1
  9 10  1  0
 10 11  1  1
  8 12  2  0
 12  3  1  0
 11  9  1  0
M  END
$$$$
