_rank7
     RDKit          3D

 12 13  0  0  0  0  0  0  0  0999 V2000
   27.6740    0.2362   -7.2580 N   0  0  0  0  0  0  0  0  0  0  0  0
   27.0362    0.1407   -8.2383 C   0  0  0  0  0  0  0  0  0  0  0  0
   26.2747    0.0349   -9.4500 C   0  0  0  0  0  0  0  0  0  0  0  0
   26.9196    0.0166  -10.6823 C   0  0  0  0  0  0  0  0  0  0  0  0
   26.1642   -0.0859  -11.8320 C   0  0  0  0  0  0  0  0  0  0  0  0
   26.7866   -0.1042  -13.0345 F   0  0  0  0  0  0  0  0  0  0  0  0
   24.7910   -0.1673  -11.7279 C   0  0  0  0  0  0  0  0  0  0  0  0
   24.1309   -0.1510  -10.5183 C   0  0  0  0  0  0  0  0  0  0  0  0
   22.6409   -0.2405  -10.4293 C   0  0  1  0  0  0  0  0  0  0  0  0
   22.0151   -1.4351  -10.9448 C   0  0  0  0  0  0  0  0  0  0  0  0
   22.1680   -1.2965   -9.5350 O   0  0  0  0  0  0  0  0  0  0  0  0
   24.8991   -0.0481   -9.3758 C   0  0  0  0  0  0  0  0  0  0  0  0
  1  2  3  0
  2  3  1  0
  3  4  2  0
  4  5  1  0
  5  6  1  0
  5  7  2  0
  7  8  1  0
  9  8  1  6
  9 10  1  0
 10 11  1  1
  8 12  2  0
 12  3  1  0
 11  9  1  0
M  END
$$$$
