_rank14
     RDKit          3D

 12 13  0  0  0  0  0  0  0  0999 V2000
   27.7708    0.9695  -13.2044 N   0  0  0  0  0  0  0  0  0  0  0  0
   26.9840    0.6075  -12.4128 C   0  0  0  0  0  0  0  0  0  0  0  0
   26.0064    0.1579  -11.4632 C   0  0  0  0  0  0  0  0  0  0  0  0
   26.3766   -0.1025  -10.1480 C   0  0  0  0  0  0  0  0  0  0  0  0
   25.4175   -0.5336   -9.2551 C   0  0  0  0  0  0  0  0  0  0  0  0
   25.7722   -0.7886   -7.9734 F   0  0  0  0  0  0  0  0  0  0  0  0
   24.1187   -0.6946   -9.6911 C   0  0  0  0  0  0  0  0  0  0  0  0
   23.7292   -0.4428  -10.9888 C   0  0  0  0  0  0  0  0  0  0  0  0
   22.3149   -0.6243  -11.4393 C   0  0  1  0  0  0  0  0  0  0  0  0
   21.6149   -1.7982  -10.9741 C   0  0  0  0  0  0  0  0  0  0  0  0
   21.3379   -0.5456  -10.3540 O   0  0  0  0  0  0  0  0  0  0  0  0
   24.6991   -0.0119  -11.8717 C   0  0  0  0  0  0  0  0  0  0  0  0
  1  2  3  0
  2  3  1  0
  3  4  2  0
  4  5  1  0
  5  6  1  0
  5  7  2  0
  7  8  1  0
  9  8  1  1
  9 10  1  0
 10 11  1  1
  8 12  2  0
 12  3  1  0
 11  9  1  0
M  END
$$$$
