_rank1
     RDKit          3D

 12 13  0  0  0  0  0  0  0  0999 V2000
   21.1585   -1.8413  -10.3855 N   0  0  0  0  0  0  0  0  0  0  0  0
   22.2598   -1.4617  -10.5262 C   0  0  0  0  0  0  0  0  0  0  0  0
   23.6151   -1.0176  -10.6858 C   0  0  0  0  0  0  0  0  0  0  0  0
   24.0681   -0.5857  -11.9280 C   0  0  0  0  0  0  0  0  0  0  0  0
   25.3754   -0.1638  -12.0544 C   0  0  0  0  0  0  0  0  0  0  0  0
   25.8219    0.2577  -13.2613 F   0  0  0  0  0  0  0  0  0  0  0  0
   26.1967   -0.1821  -10.9462 C   0  0  0  0  0  0  0  0  0  0  0  0
   25.7697   -0.6057   -9.7063 C   0  0  0  0  0  0  0  0  0  0  0  0
   26.6780   -0.6168   -8.5184 C   0  0  1  0  0  0  0  0  0  0  0  0
   28.0890   -0.4281   -8.7592 C   0  0  0  0  0  0  0  0  0  0  0  0
   27.3267    0.6686   -8.2628 O   0  0  0  0  0  0  0  0  0  0  0  0
   24.4592   -1.0251   -9.5940 C   0  0  0  0  0  0  0  0  0  0  0  0
  1  2  3  0
  2  3  1  0
  3  4  2  0
  4  5  1  0
  5  6  1  0
  5  7  2  0
  7  8  1  0
  9  8  1  6
  9 10  1  0
 10 11  1  1
  8 12  2  0
 12  3  1  0
 11  9  1  0
M  END
$$$$
