_rank17
     RDKit          3D

 12 13  0  0  0  0  0  0  0  0999 V2000
   20.8322   -3.5356   -9.2896 N   0  0  0  0  0  0  0  0  0  0  0  0
   21.5758   -2.7917   -9.8097 C   0  0  0  0  0  0  0  0  0  0  0  0
   22.4659   -1.8713  -10.4578 C   0  0  0  0  0  0  0  0  0  0  0  0
   21.9718   -0.9450  -11.3701 C   0  0  0  0  0  0  0  0  0  0  0  0
   22.8487   -0.0714  -11.9791 C   0  0  0  0  0  0  0  0  0  0  0  0
   22.3733    0.8326  -12.8681 F   0  0  0  0  0  0  0  0  0  0  0  0
   24.1906   -0.1408  -11.6666 C   0  0  0  0  0  0  0  0  0  0  0  0
   24.7024   -1.0499  -10.7662 C   0  0  0  0  0  0  0  0  0  0  0  0
   26.1612   -1.1070  -10.4428 C   0  0  1  0  0  0  0  0  0  0  0  0
   26.7865    0.1082   -9.9772 C   0  0  0  0  0  0  0  0  0  0  0  0
   26.4573   -0.9000   -9.0257 O   0  0  0  0  0  0  0  0  0  0  0  0
   23.8136   -1.9181  -10.1642 C   0  0  0  0  0  0  0  0  0  0  0  0
  1  2  3  0
  2  3  1  0
  3  4  2  0
  4  5  1  0
  5  6  1  0
  5  7  2  0
  7  8  1  0
  9  8  1  1
  9 10  1  0
 10 11  1  1
  8 12  2  0
 12  3  1  0
 11  9  1  0
M  END
$$$$
