_rank13
     RDKit          3D

 12 13  0  0  0  0  0  0  0  0999 V2000
   27.7022    0.0562   -7.5947 N   0  0  0  0  0  0  0  0  0  0  0  0
   26.9466   -0.0127   -8.4898 C   0  0  0  0  0  0  0  0  0  0  0  0
   26.0143   -0.1190   -9.5756 C   0  0  0  0  0  0  0  0  0  0  0  0
   26.4524    0.0119  -10.8892 C   0  0  0  0  0  0  0  0  0  0  0  0
   25.5358   -0.0945  -11.9146 C   0  0  0  0  0  0  0  0  0  0  0  0
   25.9566    0.0320  -13.1955 F   0  0  0  0  0  0  0  0  0  0  0  0
   24.2109   -0.3275  -11.6090 C   0  0  0  0  0  0  0  0  0  0  0  0
   23.7543   -0.4605  -10.3156 C   0  0  0  0  0  0  0  0  0  0  0  0
   22.3130   -0.7128  -10.0078 C   0  0  1  0  0  0  0  0  0  0  0  0
   21.3326   -0.1296  -10.8927 C   0  0  0  0  0  0  0  0  0  0  0  0
   21.6284   -1.5177  -11.0188 O   0  0  0  0  0  0  0  0  0  0  0  0
   24.6824   -0.3518   -9.2992 C   0  0  0  0  0  0  0  0  0  0  0  0
  1  2  3  0
  2  3  1  0
  3  4  2  0
  4  5  1  0
  5  6  1  0
  5  7  2  0
  7  8  1  0
  9  8  1  6
  9 10  1  0
 10 11  1  1
  8 12  2  0
 12  3  1  0
 11  9  1  0
M  END
$$$$
