_rank2
     RDKit          3D

 12 13  0  0  0  0  0  0  0  0999 V2000
   21.7399   -0.6054   -9.5554 N   0  0  0  0  0  0  0  0  0  0  0  0
   22.8449   -0.5098   -9.9382 C   0  0  0  0  0  0  0  0  0  0  0  0
   24.1989   -0.3717  -10.3933 C   0  0  0  0  0  0  0  0  0  0  0  0
   24.4606    0.0031  -11.7070 C   0  0  0  0  0  0  0  0  0  0  0  0
   25.7711    0.1288  -12.1191 C   0  0  0  0  0  0  0  0  0  0  0  0
   26.0319    0.4933  -13.3969 F   0  0  0  0  0  0  0  0  0  0  0  0
   26.7851   -0.1205  -11.2176 C   0  0  0  0  0  0  0  0  0  0  0  0
   26.5495   -0.4929   -9.9118 C   0  0  0  0  0  0  0  0  0  0  0  0
   27.6647   -0.7582   -8.9517 C   0  0  1  0  0  0  0  0  0  0  0  0
   28.2771    0.3827   -8.3130 C   0  0  0  0  0  0  0  0  0  0  0  0
   27.3477   -0.4007   -7.5696 O   0  0  0  0  0  0  0  0  0  0  0  0
   25.2334   -0.6149   -9.5128 C   0  0  0  0  0  0  0  0  0  0  0  0
  1  2  3  0
  2  3  1  0
  3  4  2  0
  4  5  1  0
  5  6  1  0
  5  7  2  0
  7  8  1  0
  9  8  1  6
  9 10  1  0
 10 11  1  1
  8 12  2  0
 12  3  1  0
 11  9  1  0
M  END
$$$$
