_rank5
     RDKit          3D

 19 21  0  0  0  0  0  0  0  0999 V2000
   18.2421    0.9219  -10.0138 N   0  0  0  0  0  0  0  0  0  0  0  0
   19.3957    0.5285  -10.0678 C   0  0  0  0  0  0  0  0  0  0  0  0
   20.6976    0.0729  -10.1504 C   0  0  0  0  0  0  0  0  0  0  0  0
   20.9533   -1.3095  -10.1887 C   0  0  0  0  0  0  0  0  0  0  0  0
   22.2339   -1.8162  -10.2970 C   0  0  0  0  0  0  0  0  0  0  0  0
   22.3941   -3.1429  -10.3272 F   0  0  0  0  0  0  0  0  0  0  0  0
   23.3109   -0.9253  -10.3704 C   0  0  0  0  0  0  0  0  0  0  0  0
   23.1137    0.4088  -10.3346 C   0  0  0  0  0  0  0  0  0  0  0  0
   24.1182    1.3252  -10.3995 O   0  0  0  0  0  0  0  0  0  0  0  0
   25.4108    1.1141  -10.7916 C   0  0  1  0  0  0  0  0  0  0  0  0
   26.3223    0.4272   -9.9100 C   0  0  1  0  0  0  0  0  0  0  0  0
   25.8635   -0.2887   -8.6869 C   0  0  0  0  0  0  0  0  0  0  0  0
   27.1614   -1.0838   -8.4131 C   0  0  0  0  0  0  0  0  0  0  0  0
   27.8189   -1.2700   -9.8007 C   0  0  0  0  0  0  0  0  0  0  0  0
   26.7256   -0.8446  -10.6840 C   0  0  2  0  0  0  0  0  0  0  0  0
   26.9785   -0.2410  -12.0001 C   0  0  0  0  0  0  0  0  0  0  0  0
   25.5571    0.4025  -12.1504 C   0  0  1  0  0  0  0  0  0  0  0  0
   24.6327   -0.6322  -12.1522 O   0  0  0  0  0  0  0  0  0  0  0  0
   21.7972    0.8759  -10.2252 C   0  0  0  0  0  0  0  0  0  0  0  0
  1  2  3  0
  2  3  1  0
  3  4  2  0
  4  5  1  0
  5  6  1  0
  5  7  2  0
  7  8  1  0
  8  9  1  0
 10  9  1  1
 10 11  1  0
 11 12  1  1
 13 12  1  1
 14 13  1  1
 15 14  1  1
 15 16  1  0
 16 17  1  1
 17 18  1  1
  8 19  2  0
 19  3  1  0
 17 10  1  0
 15 11  1  0
M  END
$$$$
