_rank13
     RDKit          3D

 19 21  0  0  0  0  0  0  0  0999 V2000
   20.7329   -2.2805   -7.1306 N   0  0  0  0  0  0  0  0  0  0  0  0
   21.0708   -1.9573   -8.2575 C   0  0  0  0  0  0  0  0  0  0  0  0
   21.4757   -1.5864   -9.5256 C   0  0  0  0  0  0  0  0  0  0  0  0
   20.5145   -1.3413  -10.5225 C   0  0  0  0  0  0  0  0  0  0  0  0
   20.8651   -0.9433  -11.7980 C   0  0  0  0  0  0  0  0  0  0  0  0
   19.8922   -0.7301  -12.6894 F   0  0  0  0  0  0  0  0  0  0  0  0
   22.2202   -0.7793  -12.1079 C   0  0  0  0  0  0  0  0  0  0  0  0
   23.1772   -1.0056  -11.1844 C   0  0  0  0  0  0  0  0  0  0  0  0
   24.5099   -0.8660  -11.4243 O   0  0  0  0  0  0  0  0  0  0  0  0
   25.3002    0.2076  -11.1211 C   0  0  1  0  0  0  0  0  0  0  0  0
   25.8467    0.3408   -9.7931 C   0  0  1  0  0  0  0  0  0  0  0  0
   25.7991   -0.7642   -8.7953 C   0  0  0  0  0  0  0  0  0  0  0  0
   26.8173   -0.1788   -7.7892 C   0  0  0  0  0  0  0  0  0  0  0  0
   27.7636    0.7000   -8.6404 C   0  0  0  0  0  0  0  0  0  0  0  0
   27.3750    0.2916   -9.9963 C   0  0  2  0  0  0  0  0  0  0  0  0
   27.4826    1.2031  -11.1445 C   0  0  0  0  0  0  0  0  0  0  0  0
   26.4996    0.4045  -12.0681 C   0  0  1  0  0  0  0  0  0  0  0  0
   27.0504   -0.8530  -12.2691 O   0  0  0  0  0  0  0  0  0  0  0  0
   22.7734   -1.4066   -9.9040 C   0  0  0  0  0  0  0  0  0  0  0  0
  1  2  3  0
  2  3  1  0
  3  4  2  0
  4  5  1  0
  5  6  1  0
  5  7  2  0
  7  8  1  0
  8  9  1  0
 10  9  1  1
 10 11  1  0
 11 12  1  1
 13 12  1  1
 14 13  1  1
 15 14  1  1
 15 16  1  0
 16 17  1  1
 17 18  1  1
  8 19  2  0
 19  3  1  0
 17 10  1  0
 15 11  1  0
M  END
$$$$
