_rank7
     RDKit          3D

 19 21  0  0  0  0  0  0  0  0999 V2000
   19.7414    1.7291   -8.2556 N   0  0  0  0  0  0  0  0  0  0  0  0
   20.4736    1.0350   -8.9417 C   0  0  0  0  0  0  0  0  0  0  0  0
   21.2923    0.2292   -9.7097 C   0  0  0  0  0  0  0  0  0  0  0  0
   21.0383   -1.1517   -9.7892 C   0  0  0  0  0  0  0  0  0  0  0  0
   21.8105   -1.9965  -10.5628 C   0  0  0  0  0  0  0  0  0  0  0  0
   21.5046   -3.2975  -10.5859 F   0  0  0  0  0  0  0  0  0  0  0  0
   22.8796   -1.4609  -11.2902 C   0  0  0  0  0  0  0  0  0  0  0  0
   23.1623   -0.1426  -11.2422 C   0  0  0  0  0  0  0  0  0  0  0  0
   24.1881    0.4376  -11.9237 O   0  0  0  0  0  0  0  0  0  0  0  0
   25.4533    0.6840  -11.4681 C   0  0  1  0  0  0  0  0  0  0  0  0
   25.7213    0.6559  -10.0513 C   0  0  1  0  0  0  0  0  0  0  0  0
   24.7406    0.1260   -9.0633 C   0  0  0  0  0  0  0  0  0  0  0  0
   25.7012    0.0160   -7.8563 C   0  0  0  0  0  0  0  0  0  0  0  0
   27.1007   -0.2084   -8.4756 C   0  0  0  0  0  0  0  0  0  0  0  0
   26.7435   -0.4854   -9.8728 C   0  0  2  0  0  0  0  0  0  0  0  0
   27.6464   -0.1601  -10.9861 C   0  0  0  0  0  0  0  0  0  0  0  0
   26.5426   -0.2051  -12.0982 C   0  0  1  0  0  0  0  0  0  0  0  0
   26.0308   -1.4946  -12.1211 O   0  0  0  0  0  0  0  0  0  0  0  0
   22.3507    0.6751  -10.4448 C   0  0  0  0  0  0  0  0  0  0  0  0
  1  2  3  0
  2  3  1  0
  3  4  2  0
  4  5  1  0
  5  6  1  0
  5  7  2  0
  7  8  1  0
  8  9  1  0
 10  9  1  1
 10 11  1  0
 11 12  1  1
 13 12  1  1
 14 13  1  1
 15 14  1  1
 15 16  1  0
 16 17  1  1
 17 18  1  1
  8 19  2  0
 19  3  1  0
 17 10  1  0
 15 11  1  0
M  END
$$$$
