_rank10
     RDKit          3D

 19 21  0  0  0  0  0  0  0  0999 V2000
   28.0039   -0.0101   -6.7269 N   0  0  0  0  0  0  0  0  0  0  0  0
   27.4649   -0.0553   -7.8205 C   0  0  0  0  0  0  0  0  0  0  0  0
   26.8366   -0.0926   -9.0507 C   0  0  0  0  0  0  0  0  0  0  0  0
   27.6056   -0.1517  -10.2268 C   0  0  0  0  0  0  0  0  0  0  0  0
   27.0269   -0.2167  -11.4794 C   0  0  0  0  0  0  0  0  0  0  0  0
   27.8266   -0.2706  -12.5491 F   0  0  0  0  0  0  0  0  0  0  0  0
   25.6310   -0.2236  -11.5811 C   0  0  0  0  0  0  0  0  0  0  0  0
   24.8531   -0.1656  -10.4804 C   0  0  0  0  0  0  0  0  0  0  0  0
   23.4922   -0.1665  -10.5134 O   0  0  0  0  0  0  0  0  0  0  0  0
   22.6687   -1.2254  -10.7774 C   0  0  1  0  0  0  0  0  0  0  0  0
   21.3896   -1.3184  -10.1177 C   0  0  1  0  0  0  0  0  0  0  0  0
   20.8059   -0.1872   -9.3440 C   0  0  0  0  0  0  0  0  0  0  0  0
   19.3652   -0.7372   -9.2279 C   0  0  0  0  0  0  0  0  0  0  0  0
   19.1746   -1.6315  -10.4754 C   0  0  0  0  0  0  0  0  0  0  0  0
   20.3579   -1.2631  -11.2631 C   0  0  2  0  0  0  0  0  0  0  0  0
   20.9977   -2.2044  -12.1931 C   0  0  0  0  0  0  0  0  0  0  0  0
   22.3633   -1.4387  -12.2726 C   0  0  1  0  0  0  0  0  0  0  0  0
   22.1031   -0.1829  -12.8022 O   0  0  0  0  0  0  0  0  0  0  0  0
   25.4851   -0.1019   -9.2315 C   0  0  0  0  0  0  0  0  0  0  0  0
  1  2  3  0
  2  3  1  0
  3  4  2  0
  4  5  1  0
  5  6  1  0
  5  7  2  0
  7  8  1  0
  8  9  1  0
 10  9  1  6
 10 11  1  0
 11 12  1  1
 13 12  1  1
 14 13  1  1
 15 14  1  1
 15 16  1  0
 16 17  1  1
 17 18  1  6
  8 19  2  0
 19  3  1  0
 17 10  1  0
 15 11  1  0
M  END
$$$$
