_rank16
     RDKit          3D

 19 21  0  0  0  0  0  0  0  0999 V2000
   27.5941    1.2446   -6.5613 N   0  0  0  0  0  0  0  0  0  0  0  0
   27.1733    0.7169   -7.5777 C   0  0  0  0  0  0  0  0  0  0  0  0
   26.7071    0.1364   -8.7418 C   0  0  0  0  0  0  0  0  0  0  0  0
   27.5820   -0.6140   -9.5477 C   0  0  0  0  0  0  0  0  0  0  0  0
   27.1604   -1.2358  -10.7070 C   0  0  0  0  0  0  0  0  0  0  0  0
   28.0532   -1.9312  -11.4184 F   0  0  0  0  0  0  0  0  0  0  0  0
   25.8202   -1.1147  -11.0917 C   0  0  0  0  0  0  0  0  0  0  0  0
   24.9456   -0.4028  -10.3513 C   0  0  0  0  0  0  0  0  0  0  0  0
   23.6321   -0.2461  -10.6728 O   0  0  0  0  0  0  0  0  0  0  0  0
   22.8159   -1.1496  -11.2945 C   0  0  1  0  0  0  0  0  0  0  0  0
   21.5483   -1.4956  -10.7000 C   0  0  1  0  0  0  0  0  0  0  0  0
   20.9648   -0.7317   -9.5621 C   0  0  0  0  0  0  0  0  0  0  0  0
   19.5320   -1.3088   -9.6383 C   0  0  0  0  0  0  0  0  0  0  0  0
   19.3315   -1.6920  -11.1233 C   0  0  0  0  0  0  0  0  0  0  0  0
   20.4983   -1.0444  -11.7360 C   0  0  2  0  0  0  0  0  0  0  0  0
   21.1336   -1.5738  -12.9512 C   0  0  0  0  0  0  0  0  0  0  0  0
   22.4894   -0.8103  -12.7617 C   0  0  1  0  0  0  0  0  0  0  0  0
   22.2077    0.5478  -12.7962 O   0  0  0  0  0  0  0  0  0  0  0  0
   25.4189    0.2092   -9.1831 C   0  0  0  0  0  0  0  0  0  0  0  0
  1  2  3  0
  2  3  1  0
  3  4  2  0
  4  5  1  0
  5  6  1  0
  5  7  2  0
  7  8  1  0
  8  9  1  0
 10  9  1  1
 10 11  1  0
 11 12  1  1
 13 12  1  1
 14 13  1  1
 15 14  1  1
 15 16  1  0
 16 17  1  1
 17 18  1  1
  8 19  2  0
 19  3  1  0
 17 10  1  0
 15 11  1  0
M  END
$$$$
