_rank19
     RDKit          3D

 19 21  0  0  0  0  0  0  0  0999 V2000
   21.9637   -0.3747   -4.8333 N   0  0  0  0  0  0  0  0  0  0  0  0
   21.7161   -0.2889   -6.0250 C   0  0  0  0  0  0  0  0  0  0  0  0
   21.4310   -0.1684   -7.3717 C   0  0  0  0  0  0  0  0  0  0  0  0
   20.1929    0.3595   -7.7796 C   0  0  0  0  0  0  0  0  0  0  0  0
   19.8688    0.5248   -9.1122 C   0  0  0  0  0  0  0  0  0  0  0  0
   18.6714    1.0336   -9.4188 F   0  0  0  0  0  0  0  0  0  0  0  0
   20.8023    0.1548  -10.0872 C   0  0  0  0  0  0  0  0  0  0  0  0
   22.0015   -0.3583   -9.7428 C   0  0  0  0  0  0  0  0  0  0  0  0
   22.9496   -0.7386  -10.6426 O   0  0  0  0  0  0  0  0  0  0  0  0
   23.5268    0.0294  -11.6153 C   0  0  1  0  0  0  0  0  0  0  0  0
   24.9494    0.2656  -11.5898 C   0  0  1  0  0  0  0  0  0  0  0  0
   25.8685   -0.4904  -10.6940 C   0  0  0  0  0  0  0  0  0  0  0  0
   27.1983   -0.0832  -11.3703 C   0  0  0  0  0  0  0  0  0  0  0  0
   26.8313    0.1869  -12.8484 C   0  0  0  0  0  0  0  0  0  0  0  0
   25.4698   -0.3609  -12.8997 C   0  0  2  0  0  0  0  0  0  0  0  0
   24.4541    0.1638  -13.8236 C   0  0  0  0  0  0  0  0  0  0  0  0
   23.2242   -0.4303  -13.0545 C   0  0  1  0  0  0  0  0  0  0  0  0
   23.3598   -1.8111  -13.0612 O   0  0  0  0  0  0  0  0  0  0  0  0
   22.2859   -0.5064   -8.3788 C   0  0  0  0  0  0  0  0  0  0  0  0
  1  2  3  0
  2  3  1  0
  3  4  2  0
  4  5  1  0
  5  6  1  0
  5  7  2  0
  7  8  1  0
  8  9  1  0
 10  9  1  1
 10 11  1  0
 11 12  1  1
 13 12  1  1
 14 13  1  1
 15 14  1  6
 15 16  1  0
 16 17  1  1
 17 18  1  1
  8 19  2  0
 19  3  1  0
 17 10  1  0
 15 11  1  0
M  END
$$$$
