_rank1
     RDKit          3D

 19 21  0  0  0  0  0  0  0  0999 V2000
   19.0836    2.1833   -9.0427 N   0  0  0  0  0  0  0  0  0  0  0  0
   19.7285    1.2306   -9.4488 C   0  0  0  0  0  0  0  0  0  0  0  0
   20.4646    0.1640   -9.9285 C   0  0  0  0  0  0  0  0  0  0  0  0
   19.8976   -1.1228   -9.9510 C   0  0  0  0  0  0  0  0  0  0  0  0
   20.5811   -2.2173  -10.4441 C   0  0  0  0  0  0  0  0  0  0  0  0
   19.9730   -3.4076  -10.4310 F   0  0  0  0  0  0  0  0  0  0  0  0
   21.8792   -2.0398  -10.9364 C   0  0  0  0  0  0  0  0  0  0  0  0
   22.4644   -0.8243  -10.9323 C   0  0  0  0  0  0  0  0  0  0  0  0
   23.7229   -0.5877  -11.3943 O   0  0  0  0  0  0  0  0  0  0  0  0
   24.5716    0.4150  -11.0157 C   0  0  1  0  0  0  0  0  0  0  0  0
   25.4340    0.2292   -9.8747 C   0  0  1  0  0  0  0  0  0  0  0  0
   25.6296   -1.0990   -9.2293 C   0  0  0  0  0  0  0  0  0  0  0  0
   26.8713   -0.7366   -8.3817 C   0  0  0  0  0  0  0  0  0  0  0  0
   27.5809    0.3897   -9.1694 C   0  0  0  0  0  0  0  0  0  0  0  0
   26.8624    0.3273  -10.4486 C   0  0  2  0  0  0  0  0  0  0  0  0
   26.6859    1.5120  -11.3006 C   0  0  0  0  0  0  0  0  0  0  0  0
   25.4973    0.9247  -12.1371 C   0  0  1  0  0  0  0  0  0  0  0  0
   25.9713   -0.2008  -12.7955 O   0  0  0  0  0  0  0  0  0  0  0  0
   21.7319    0.2562  -10.4234 C   0  0  0  0  0  0  0  0  0  0  0  0
  1  2  3  0
  2  3  1  0
  3  4  2  0
  4  5  1  0
  5  6  1  0
  5  7  2  0
  7  8  1  0
  8  9  1  0
 10  9  1  6
 10 11  1  0
 11 12  1  6
 13 12  1  1
 14 13  1  1
 15 14  1  1
 15 16  1  0
 16 17  1  1
 17 18  1  6
  8 19  2  0
 19  3  1  0
 17 10  1  0
 15 11  1  0
M  END
$$$$
