_rank9
     RDKit          3D

 19 21  0  0  0  0  0  0  0  0999 V2000
   28.5974   -0.2111   -7.1227 N   0  0  0  0  0  0  0  0  0  0  0  0
   27.8414   -0.2386   -8.0800 C   0  0  0  0  0  0  0  0  0  0  0  0
   27.0013   -0.2573   -9.1769 C   0  0  0  0  0  0  0  0  0  0  0  0
   27.5345   -0.0987  -10.4686 C   0  0  0  0  0  0  0  0  0  0  0  0
   26.7419   -0.1355  -11.5993 C   0  0  0  0  0  0  0  0  0  0  0  0
   27.3245    0.0233  -12.7918 F   0  0  0  0  0  0  0  0  0  0  0  0
   25.3643   -0.3366  -11.4547 C   0  0  0  0  0  0  0  0  0  0  0  0
   24.8083   -0.4910  -10.2352 C   0  0  0  0  0  0  0  0  0  0  0  0
   23.4771   -0.6873  -10.0288 O   0  0  0  0  0  0  0  0  0  0  0  0
   22.4474   -0.3324  -10.8553 C   0  0  1  0  0  0  0  0  0  0  0  0
   21.4623   -1.3156  -11.2331 C   0  0  1  0  0  0  0  0  0  0  0  0
   21.3659   -2.6457  -10.5693 C   0  0  0  0  0  0  0  0  0  0  0  0
   19.9743   -3.0473  -11.1111 C   0  0  0  0  0  0  0  0  0  0  0  0
   19.2345   -1.7100  -11.3494 C   0  0  0  0  0  0  0  0  0  0  0  0
   20.1345   -0.7709  -10.6679 C   0  0  2  0  0  0  0  0  0  0  0  0
   20.2631    0.6306  -11.0920 C   0  0  0  0  0  0  0  0  0  0  0  0
   21.6333    0.8840  -10.3739 C   0  0  1  0  0  0  0  0  0  0  0  0
   21.4270    0.7037   -9.0137 O   0  0  0  0  0  0  0  0  0  0  0  0
   25.6523   -0.4474   -9.1177 C   0  0  0  0  0  0  0  0  0  0  0  0
  1  2  3  0
  2  3  1  0
  3  4  2  0
  4  5  1  0
  5  6  1  0
  5  7  2  0
  7  8  1  0
  8  9  1  0
 10  9  1  1
 10 11  1  0
 11 12  1  1
 13 12  1  1
 14 13  1  1
 15 14  1  6
 15 16  1  0
 16 17  1  1
 17 18  1  1
  8 19  2  0
 19  3  1  0
 17 10  1  0
 15 11  1  0
M  END
$$$$
