_rank20
     RDKit          3D

 19 21  0  0  0  0  0  0  0  0999 V2000
   25.1085    2.1912   -5.7432 N   0  0  0  0  0  0  0  0  0  0  0  0
   25.5072    1.4359   -6.6146 C   0  0  0  0  0  0  0  0  0  0  0  0
   25.9493    0.5951   -7.6181 C   0  0  0  0  0  0  0  0  0  0  0  0
   27.3262    0.3541   -7.7721 C   0  0  0  0  0  0  0  0  0  0  0  0
   27.8181   -0.4976   -8.7422 C   0  0  0  0  0  0  0  0  0  0  0  0
   29.1405   -0.6742   -8.8244 F   0  0  0  0  0  0  0  0  0  0  0  0
   26.9174   -1.1406   -9.5990 C   0  0  0  0  0  0  0  0  0  0  0  0
   25.5881   -0.9376   -9.4900 C   0  0  0  0  0  0  0  0  0  0  0  0
   24.6627   -1.5307  -10.2932 O   0  0  0  0  0  0  0  0  0  0  0  0
   23.3396   -1.2083  -10.4142 C   0  0  1  0  0  0  0  0  0  0  0  0
   22.9204   -0.2790  -11.4343 C   0  0  1  0  0  0  0  0  0  0  0  0
   23.8250    0.1639  -12.5317 C   0  0  0  0  0  0  0  0  0  0  0  0
   22.7491    0.7972  -13.4443 C   0  0  0  0  0  0  0  0  0  0  0  0
   21.4481    0.0220  -13.1296 C   0  0  0  0  0  0  0  0  0  0  0  0
   21.9775   -1.0973  -12.3401 C   0  0  2  0  0  0  0  0  0  0  0  0
   21.1798   -1.7615  -11.2994 C   0  0  0  0  0  0  0  0  0  0  0  0
   22.3993   -2.4194  -10.5666 C   0  0  1  0  0  0  0  0  0  0  0  0
   23.0100   -3.2782  -11.4691 O   0  0  0  0  0  0  0  0  0  0  0  0
   25.1360   -0.0661   -8.4904 C   0  0  0  0  0  0  0  0  0  0  0  0
  1  2  3  0
  2  3  1  0
  3  4  2  0
  4  5  1  0
  5  6  1  0
  5  7  2  0
  7  8  1  0
  8  9  1  0
 10  9  1  6
 10 11  1  0
 11 12  1  6
 13 12  1  1
 14 13  1  1
 15 14  1  6
 15 16  1  0
 16 17  1  1
 17 18  1  6
  8 19  2  0
 19  3  1  0
 17 10  1  0
 15 11  1  0
M  END
$$$$
