_rank4
     RDKit          3D

 19 21  0  0  0  0  0  0  0  0999 V2000
   19.2927   -3.7261   -9.2817 N   0  0  0  0  0  0  0  0  0  0  0  0
   19.8839   -2.7128   -9.6168 C   0  0  0  0  0  0  0  0  0  0  0  0
   20.5432   -1.5534   -9.9781 C   0  0  0  0  0  0  0  0  0  0  0  0
   19.8446   -0.3332  -10.0105 C   0  0  0  0  0  0  0  0  0  0  0  0
   20.4626    0.8576  -10.3397 C   0  0  0  0  0  0  0  0  0  0  0  0
   19.7296    1.9754  -10.3478 F   0  0  0  0  0  0  0  0  0  0  0  0
   21.8271    0.8492  -10.6512 C   0  0  0  0  0  0  0  0  0  0  0  0
   22.5369   -0.2979  -10.6358 C   0  0  0  0  0  0  0  0  0  0  0  0
   23.8638   -0.3719  -10.9309 O   0  0  0  0  0  0  0  0  0  0  0  0
   24.8443    0.5118  -10.5745 C   0  0  1  0  0  0  0  0  0  0  0  0
   25.8074    0.1429   -9.5663 C   0  0  1  0  0  0  0  0  0  0  0  0
   25.9430   -1.2528   -9.0640 C   0  0  0  0  0  0  0  0  0  0  0  0
   27.3020   -1.0833   -8.3456 C   0  0  0  0  0  0  0  0  0  0  0  0
   28.0254    0.0465   -9.1154 C   0  0  0  0  0  0  0  0  0  0  0  0
   27.1646    0.1698  -10.2987 C   0  0  2  0  0  0  0  0  0  0  0  0
   27.0104    1.4413  -11.0198 C   0  0  0  0  0  0  0  0  0  0  0  0
   25.6831    1.0432  -11.7526 C   0  0  1  0  0  0  0  0  0  0  0  0
   25.9669   -0.0515  -12.5565 O   0  0  0  0  0  0  0  0  0  0  0  0
   21.8675   -1.4806  -10.2949 C   0  0  0  0  0  0  0  0  0  0  0  0
  1  2  3  0
  2  3  1  0
  3  4  2  0
  4  5  1  0
  5  6  1  0
  5  7  2  0
  7  8  1  0
  8  9  1  0
 10  9  1  6
 10 11  1  0
 11 12  1  6
 13 12  1  1
 14 13  1  1
 15 14  1  1
 15 16  1  0
 16 17  1  1
 17 18  1  6
  8 19  2  0
 19  3  1  0
 17 10  1  0
 15 11  1  0
M  END
$$$$
