_rank14
     RDKit          3D

 19 21  0  0  0  0  0  0  0  0999 V2000
   27.8615    1.6968   -6.8344 N   0  0  0  0  0  0  0  0  0  0  0  0
   27.3715    0.9387   -7.6553 C   0  0  0  0  0  0  0  0  0  0  0  0
   26.8076    0.0991   -8.5968 C   0  0  0  0  0  0  0  0  0  0  0  0
   27.5839   -0.9178   -9.1809 C   0  0  0  0  0  0  0  0  0  0  0  0
   27.0615   -1.7995  -10.1072 C   0  0  0  0  0  0  0  0  0  0  0  0
   27.8643   -2.7390  -10.6165 F   0  0  0  0  0  0  0  0  0  0  0  0
   25.7170   -1.6763  -10.4763 C   0  0  0  0  0  0  0  0  0  0  0  0
   24.9350   -0.7144   -9.9442 C   0  0  0  0  0  0  0  0  0  0  0  0
   23.6229   -0.5418  -10.2635 O   0  0  0  0  0  0  0  0  0  0  0  0
   22.8598   -1.3202  -11.0885 C   0  0  1  0  0  0  0  0  0  0  0  0
   21.4980   -1.6261  -10.7253 C   0  0  1  0  0  0  0  0  0  0  0  0
   20.7932   -0.9315   -9.6119 C   0  0  0  0  0  0  0  0  0  0  0  0
   19.3575   -1.3915   -9.9566 C   0  0  0  0  0  0  0  0  0  0  0  0
   19.3644   -1.6177  -11.4867 C   0  0  0  0  0  0  0  0  0  0  0  0
   20.6473   -1.0033  -11.8512 C   0  0  2  0  0  0  0  0  0  0  0  0
   21.4288   -1.4617  -13.0087 C   0  0  0  0  0  0  0  0  0  0  0  0
   22.7822   -0.8215  -12.5444 C   0  0  1  0  0  0  0  0  0  0  0  0
   22.5895    0.5510  -12.4785 O   0  0  0  0  0  0  0  0  0  0  0  0
   25.5086    0.1559   -9.0079 C   0  0  0  0  0  0  0  0  0  0  0  0
  1  2  3  0
  2  3  1  0
  3  4  2  0
  4  5  1  0
  5  6  1  0
  5  7  2  0
  7  8  1  0
  8  9  1  0
 10  9  1  1
 10 11  1  0
 11 12  1  1
 13 12  1  1
 14 13  1  1
 15 14  1  6
 15 16  1  0
 16 17  1  1
 17 18  1  1
  8 19  2  0
 19  3  1  0
 17 10  1  0
 15 11  1  0
M  END
$$$$
