_rank11
     RDKit          3D

 19 21  0  0  0  0  0  0  0  0999 V2000
   19.2524   -3.0100   -9.1912 N   0  0  0  0  0  0  0  0  0  0  0  0
   20.2461   -2.4264   -9.5919 C   0  0  0  0  0  0  0  0  0  0  0  0
   21.3589   -1.7573  -10.0644 C   0  0  0  0  0  0  0  0  0  0  0  0
   21.5133   -1.5465  -11.4463 C   0  0  0  0  0  0  0  0  0  0  0  0
   22.5936   -0.8615  -11.9680 C   0  0  0  0  0  0  0  0  0  0  0  0
   22.6683   -0.7027  -13.2931 F   0  0  0  0  0  0  0  0  0  0  0  0
   23.5653   -0.3619  -11.0933 C   0  0  0  0  0  0  0  0  0  0  0  0
   23.4603   -0.5424   -9.7605 C   0  0  0  0  0  0  0  0  0  0  0  0
   24.3717   -0.0835   -8.8595 O   0  0  0  0  0  0  0  0  0  0  0  0
   25.6684   -0.4901   -8.7095 C   0  0  1  0  0  0  0  0  0  0  0  0
   26.3901   -1.0114   -9.8441 C   0  0  1  0  0  0  0  0  0  0  0  0
   25.8754   -0.9008  -11.2375 C   0  0  0  0  0  0  0  0  0  0  0  0
   27.1859   -1.2675  -11.9722 C   0  0  0  0  0  0  0  0  0  0  0  0
   28.3194   -0.8256  -11.0170 C   0  0  0  0  0  0  0  0  0  0  0  0
   27.5638   -0.0301  -10.0408 C   0  0  2  0  0  0  0  0  0  0  0  0
   27.9934    0.0966   -8.6409 C   0  0  0  0  0  0  0  0  0  0  0  0
   26.6024    0.5701   -8.0949 C   0  0  1  0  0  0  0  0  0  0  0  0
   26.2987    1.7701   -8.7218 O   0  0  0  0  0  0  0  0  0  0  0  0
   22.3466   -1.2424   -9.2778 C   0  0  0  0  0  0  0  0  0  0  0  0
  1  2  3  0
  2  3  1  0
  3  4  2  0
  4  5  1  0
  5  6  1  0
  5  7  2  0
  7  8  1  0
  8  9  1  0
 10  9  1  6
 10 11  1  0
 11 12  1  6
 13 12  1  1
 14 13  1  1
 15 14  1  6
 15 16  1  0
 16 17  1  1
 17 18  1  6
  8 19  2  0
 19  3  1  0
 17 10  1  0
 15 11  1  0
M  END
$$$$
