_rank15
     RDKit          3D

 19 21  0  0  0  0  0  0  0  0999 V2000
   27.9092    1.6535   -6.6475 N   0  0  0  0  0  0  0  0  0  0  0  0
   27.4412    0.9586   -7.5345 C   0  0  0  0  0  0  0  0  0  0  0  0
   26.9064    0.1545   -8.5228 C   0  0  0  0  0  0  0  0  0  0  0  0
   27.6832   -0.8758   -9.0823 C   0  0  0  0  0  0  0  0  0  0  0  0
   27.1876   -1.7235  -10.0540 C   0  0  0  0  0  0  0  0  0  0  0  0
   27.9890   -2.6786  -10.5359 F   0  0  0  0  0  0  0  0  0  0  0  0
   25.8707   -1.5511  -10.4957 C   0  0  0  0  0  0  0  0  0  0  0  0
   25.0895   -0.5746   -9.9895 C   0  0  0  0  0  0  0  0  0  0  0  0
   23.8036   -0.3548  -10.3787 O   0  0  0  0  0  0  0  0  0  0  0  0
   22.9910   -1.2034  -11.0778 C   0  0  1  0  0  0  0  0  0  0  0  0
   21.7444   -1.6391  -10.4982 C   0  0  1  0  0  0  0  0  0  0  0  0
   21.1724   -1.0155   -9.2722 C   0  0  0  0  0  0  0  0  0  0  0  0
   19.7497   -1.6120   -9.3808 C   0  0  0  0  0  0  0  0  0  0  0  0
   19.5226   -1.8368  -10.8942 C   0  0  0  0  0  0  0  0  0  0  0  0
   20.6623   -1.1015  -11.4570 C   0  0  2  0  0  0  0  0  0  0  0  0
   21.2796   -1.4826  -12.7354 C   0  0  0  0  0  0  0  0  0  0  0  0
   22.6244   -0.7147  -12.4923 C   0  0  1  0  0  0  0  0  0  0  0  0
   22.3157    0.6328  -12.3734 O   0  0  0  0  0  0  0  0  0  0  0  0
   25.6353    0.2598   -9.0052 C   0  0  0  0  0  0  0  0  0  0  0  0
  1  2  3  0
  2  3  1  0
  3  4  2  0
  4  5  1  0
  5  6  1  0
  5  7  2  0
  7  8  1  0
  8  9  1  0
 10  9  1  1
 10 11  1  0
 11 12  1  1
 13 12  1  1
 14 13  1  1
 15 14  1  1
 15 16  1  0
 16 17  1  1
 17 18  1  1
  8 19  2  0
 19  3  1  0
 17 10  1  0
 15 11  1  0
M  END
$$$$
