_rank8
     RDKit          3D

 18 19  0  0  0  0  0  0  0  0999 V2000
   26.5122   -0.6282  -13.0769 O   0  0  0  0  0  0  0  0  0  0  0  0
   26.0505    0.1862  -12.2563 C   0  0  0  0  0  0  0  0  0  0  0  0
   25.9894   -0.1403  -10.8536 C   0  0  0  0  0  0  0  0  0  0  0  0
   27.1464   -0.6703  -10.2729 C   0  0  0  0  0  0  0  0  0  0  0  0
   27.1678   -1.0784   -8.9617 C   0  0  0  0  0  0  0  0  0  0  0  0
   28.2812   -1.5932   -8.3874 F   0  0  0  0  0  0  0  0  0  0  0  0
   25.9957   -0.9415   -8.2437 C   0  0  0  0  0  0  0  0  0  0  0  0
   24.8499   -0.4191   -8.8063 C   0  0  0  0  0  0  0  0  0  0  0  0
   24.8276   -0.0015  -10.1426 C   0  0  0  0  0  0  0  0  0  0  0  0
   23.6411    0.5103  -10.6233 O   0  0  0  0  0  0  0  0  0  0  0  0
   22.4217   -0.1300  -10.4864 C   0  0  0  0  0  0  0  0  0  0  0  0
   21.2420    0.5876  -10.3266 C   0  0  0  0  0  0  0  0  0  0  0  0
   20.0140   -0.0172  -10.1916 C   0  0  0  0  0  0  0  0  0  0  0  0
   18.9110    0.7546  -10.0399 F   0  0  0  0  0  0  0  0  0  0  0  0
   19.9122   -1.3923  -10.2111 C   0  0  0  0  0  0  0  0  0  0  0  0
   21.0551   -2.1407  -10.3671 C   0  0  0  0  0  0  0  0  0  0  0  0
   20.9600   -3.5069  -10.3872 F   0  0  0  0  0  0  0  0  0  0  0  0
   22.2752   -1.5124  -10.5007 C   0  0  0  0  0  0  0  0  0  0  0  0
  1  2  2  0
  2  3  1  0
  3  4  2  0
  4  5  1  0
  5  6  1  0
  5  7  2  0
  7  8  1  0
  8  9  2  0
  9 10  1  0
 10 11  1  0
 11 12  2  0
 12 13  1  0
 13 14  1  0
 13 15  2  0
 15 16  1  0
 16 17  1  0
 16 18  2  0
  9  3  1  0
 18 11  1  0
M  END
$$$$
