_rank6
     RDKit          3D

 18 19  0  0  0  0  0  0  0  0999 V2000
   27.4210   -0.6637  -12.8695 O   0  0  0  0  0  0  0  0  0  0  0  0
   26.2604   -0.5140  -12.4449 C   0  0  0  0  0  0  0  0  0  0  0  0
   26.0064   -0.3909  -11.0313 C   0  0  0  0  0  0  0  0  0  0  0  0
   27.1028   -0.5298  -10.1737 C   0  0  0  0  0  0  0  0  0  0  0  0
   26.9533   -0.4992   -8.8087 C   0  0  0  0  0  0  0  0  0  0  0  0
   28.0063   -0.6325   -7.9673 F   0  0  0  0  0  0  0  0  0  0  0  0
   25.6721   -0.3252   -8.3225 C   0  0  0  0  0  0  0  0  0  0  0  0
   24.5847   -0.1861   -9.1593 C   0  0  0  0  0  0  0  0  0  0  0  0
   24.7363   -0.2158  -10.5509 C   0  0  0  0  0  0  0  0  0  0  0  0
   23.5967   -0.0672  -11.3126 O   0  0  0  0  0  0  0  0  0  0  0  0
   22.3518   -0.5302  -10.9231 C   0  0  0  0  0  0  0  0  0  0  0  0
   21.9145   -1.8043  -11.2655 C   0  0  0  0  0  0  0  0  0  0  0  0
   20.6855   -2.2963  -10.8917 C   0  0  0  0  0  0  0  0  0  0  0  0
   20.3344   -3.5499  -11.2664 F   0  0  0  0  0  0  0  0  0  0  0  0
   19.8253   -1.5192  -10.1448 C   0  0  0  0  0  0  0  0  0  0  0  0
   20.2187   -0.2519   -9.7843 C   0  0  0  0  0  0  0  0  0  0  0  0
   19.3684    0.5245   -9.0425 F   0  0  0  0  0  0  0  0  0  0  0  0
   21.4553    0.2199  -10.1705 C   0  0  0  0  0  0  0  0  0  0  0  0
  1  2  2  0
  2  3  1  0
  3  4  2  0
  4  5  1  0
  5  6  1  0
  5  7  2  0
  7  8  1  0
  8  9  2  0
  9 10  1  0
 10 11  1  0
 11 12  2  0
 12 13  1  0
 13 14  1  0
 13 15  2  0
 15 16  1  0
 16 17  1  0
 16 18  2  0
  9  3  1  0
 18 11  1  0
M  END
$$$$
