_rank16
     RDKit          3D

 18 19  0  0  0  0  0  0  0  0999 V2000
   23.0822    0.4903  -13.7973 O   0  0  0  0  0  0  0  0  0  0  0  0
   23.6956   -0.0482  -12.8574 C   0  0  0  0  0  0  0  0  0  0  0  0
   22.9931   -0.4838  -11.6765 C   0  0  0  0  0  0  0  0  0  0  0  0
   21.6464   -0.1211  -11.5676 C   0  0  0  0  0  0  0  0  0  0  0  0
   20.9100   -0.4271  -10.4494 C   0  0  0  0  0  0  0  0  0  0  0  0
   19.6056   -0.0819  -10.3313 F   0  0  0  0  0  0  0  0  0  0  0  0
   21.5595   -1.1087   -9.4387 C   0  0  0  0  0  0  0  0  0  0  0  0
   22.8864   -1.4720   -9.5365 C   0  0  0  0  0  0  0  0  0  0  0  0
   23.6375   -1.1615  -10.6767 C   0  0  0  0  0  0  0  0  0  0  0  0
   24.9562   -1.5640  -10.6916 O   0  0  0  0  0  0  0  0  0  0  0  0
   25.9199   -1.0553   -9.8383 C   0  0  0  0  0  0  0  0  0  0  0  0
   26.7095   -1.8920   -9.0583 C   0  0  0  0  0  0  0  0  0  0  0  0
   27.6779   -1.4196   -8.2033 C   0  0  0  0  0  0  0  0  0  0  0  0
   28.4053   -2.3022   -7.4773 F   0  0  0  0  0  0  0  0  0  0  0  0
   27.9017   -0.0636   -8.0902 C   0  0  0  0  0  0  0  0  0  0  0  0
   27.1423    0.7999   -8.8442 C   0  0  0  0  0  0  0  0  0  0  0  0
   27.3602    2.1479   -8.7359 F   0  0  0  0  0  0  0  0  0  0  0  0
   26.1772    0.3033   -9.6945 C   0  0  0  0  0  0  0  0  0  0  0  0
  1  2  2  0
  2  3  1  0
  3  4  2  0
  4  5  1  0
  5  6  1  0
  5  7  2  0
  7  8  1  0
  8  9  2  0
  9 10  1  0
 10 11  1  0
 11 12  2  0
 12 13  1  0
 13 14  1  0
 13 15  2  0
 15 16  1  0
 16 17  1  0
 16 18  2  0
  9  3  1  0
 18 11  1  0
M  END
$$$$
