_rank12
     RDKit          3D

 18 19  0  0  0  0  0  0  0  0999 V2000
   20.9122   -2.3968   -7.8658 O   0  0  0  0  0  0  0  0  0  0  0  0
   21.7419   -1.8301   -8.6009 C   0  0  0  0  0  0  0  0  0  0  0  0
   21.3096   -0.9053   -9.6185 C   0  0  0  0  0  0  0  0  0  0  0  0
   20.1510   -0.1667   -9.3559 C   0  0  0  0  0  0  0  0  0  0  0  0
   19.6189    0.6880  -10.2901 C   0  0  0  0  0  0  0  0  0  0  0  0
   18.4979    1.4088  -10.0486 F   0  0  0  0  0  0  0  0  0  0  0  0
   20.2796    0.7846  -11.4992 C   0  0  0  0  0  0  0  0  0  0  0  0
   21.4232    0.0618  -11.7677 C   0  0  0  0  0  0  0  0  0  0  0  0
   21.9671   -0.8088  -10.8155 C   0  0  0  0  0  0  0  0  0  0  0  0
   23.1130   -1.4905  -11.1663 O   0  0  0  0  0  0  0  0  0  0  0  0
   24.3795   -1.1226  -10.7467 C   0  0  0  0  0  0  0  0  0  0  0  0
   25.0688   -0.0804  -11.3557 C   0  0  0  0  0  0  0  0  0  0  0  0
   26.3265    0.3128  -10.9610 C   0  0  0  0  0  0  0  0  0  0  0  0
   26.9306    1.3388  -11.6072 F   0  0  0  0  0  0  0  0  0  0  0  0
   26.9602   -0.3326   -9.9201 C   0  0  0  0  0  0  0  0  0  0  0  0
   26.3136   -1.3695   -9.2896 C   0  0  0  0  0  0  0  0  0  0  0  0
   26.9382   -2.0142   -8.2550 F   0  0  0  0  0  0  0  0  0  0  0  0
   25.0531   -1.7461   -9.7026 C   0  0  0  0  0  0  0  0  0  0  0  0
  1  2  2  0
  2  3  1  0
  3  4  2  0
  4  5  1  0
  5  6  1  0
  5  7  2  0
  7  8  1  0
  8  9  2  0
  9 10  1  0
 10 11  1  0
 11 12  2  0
 12 13  1  0
 13 14  1  0
 13 15  2  0
 15 16  1  0
 16 17  1  0
 16 18  2  0
  9  3  1  0
 18 11  1  0
M  END
$$$$
