_rank5
     RDKit          3D

 18 19  0  0  0  0  0  0  0  0999 V2000
   27.5042    0.0781  -12.8412 O   0  0  0  0  0  0  0  0  0  0  0  0
   26.5035    0.5032  -12.2350 C   0  0  0  0  0  0  0  0  0  0  0  0
   26.2066    0.0490  -10.8996 C   0  0  0  0  0  0  0  0  0  0  0  0
   27.2648    0.0282   -9.9849 C   0  0  0  0  0  0  0  0  0  0  0  0
   27.1002   -0.4538   -8.7094 C   0  0  0  0  0  0  0  0  0  0  0  0
   28.1164   -0.4795   -7.8142 F   0  0  0  0  0  0  0  0  0  0  0  0
   25.8433   -0.9165   -8.3718 C   0  0  0  0  0  0  0  0  0  0  0  0
   24.7930   -0.8994   -9.2656 C   0  0  0  0  0  0  0  0  0  0  0  0
   24.9596   -0.4069  -10.5657 C   0  0  0  0  0  0  0  0  0  0  0  0
   23.8566   -0.4251  -11.3928 O   0  0  0  0  0  0  0  0  0  0  0  0
   22.5787   -0.7276  -10.9555 C   0  0  0  0  0  0  0  0  0  0  0  0
   21.7778    0.2301  -10.3445 C   0  0  0  0  0  0  0  0  0  0  0  0
   20.5029   -0.0364   -9.9020 C   0  0  0  0  0  0  0  0  0  0  0  0
   19.7870    0.9534   -9.3164 F   0  0  0  0  0  0  0  0  0  0  0  0
   19.9649   -1.2968  -10.0550 C   0  0  0  0  0  0  0  0  0  0  0  0
   20.7236   -2.2744  -10.6546 C   0  0  0  0  0  0  0  0  0  0  0  0
   20.1944   -3.5282  -10.8091 F   0  0  0  0  0  0  0  0  0  0  0  0
   21.9991   -1.9841  -11.0903 C   0  0  0  0  0  0  0  0  0  0  0  0
  1  2  2  0
  2  3  1  0
  3  4  2  0
  4  5  1  0
  5  6  1  0
  5  7  2  0
  7  8  1  0
  8  9  2  0
  9 10  1  0
 10 11  1  0
 11 12  2  0
 12 13  1  0
 13 14  1  0
 13 15  2  0
 15 16  1  0
 16 17  1  0
 16 18  2  0
  9  3  1  0
 18 11  1  0
M  END
$$$$
