_rank9
     RDKit          3D

 18 19  0  0  0  0  0  0  0  0999 V2000
   26.8747   -1.2479   -7.9810 O   0  0  0  0  0  0  0  0  0  0  0  0
   25.8551   -0.6862   -8.4222 C   0  0  0  0  0  0  0  0  0  0  0  0
   25.7037   -0.4444   -9.8351 C   0  0  0  0  0  0  0  0  0  0  0  0
   26.8447   -0.5908  -10.6312 C   0  0  0  0  0  0  0  0  0  0  0  0
   26.8202   -0.3147  -11.9764 C   0  0  0  0  0  0  0  0  0  0  0  0
   27.9176   -0.4523  -12.7583 F   0  0  0  0  0  0  0  0  0  0  0  0
   25.6186    0.1136  -12.5063 C   0  0  0  0  0  0  0  0  0  0  0  0
   24.4877    0.2601  -11.7305 C   0  0  0  0  0  0  0  0  0  0  0  0
   24.5114   -0.0225  -10.3594 C   0  0  0  0  0  0  0  0  0  0  0  0
   23.3357    0.1493   -9.6599 O   0  0  0  0  0  0  0  0  0  0  0  0
   22.1166   -0.3538  -10.0798 C   0  0  0  0  0  0  0  0  0  0  0  0
   20.9447    0.3807   -9.9412 C   0  0  0  0  0  0  0  0  0  0  0  0
   19.7182   -0.0880  -10.3510 C   0  0  0  0  0  0  0  0  0  0  0  0
   18.6230    0.6909  -10.1801 F   0  0  0  0  0  0  0  0  0  0  0  0
   19.6100   -1.3358  -10.9280 C   0  0  0  0  0  0  0  0  0  0  0  0
   20.7451   -2.0959  -11.0840 C   0  0  0  0  0  0  0  0  0  0  0  0
   20.6436   -3.3361  -11.6566 F   0  0  0  0  0  0  0  0  0  0  0  0
   21.9639   -1.6052  -10.6657 C   0  0  0  0  0  0  0  0  0  0  0  0
  1  2  2  0
  2  3  1  0
  3  4  2  0
  4  5  1  0
  5  6  1  0
  5  7  2  0
  7  8  1  0
  8  9  2  0
  9 10  1  0
 10 11  1  0
 11 12  2  0
 12 13  1  0
 13 14  1  0
 13 15  2  0
 15 16  1  0
 16 17  1  0
 16 18  2  0
  9  3  1  0
 18 11  1  0
M  END
$$$$
