_rank3
     RDKit          3D

 18 19  0  0  0  0  0  0  0  0999 V2000
   27.5759    0.5117  -12.8235 O   0  0  0  0  0  0  0  0  0  0  0  0
   26.4072    0.2731  -12.4672 C   0  0  0  0  0  0  0  0  0  0  0  0
   26.1106   -0.0533  -11.0949 C   0  0  0  0  0  0  0  0  0  0  0  0
   27.1973   -0.3215  -10.2558 C   0  0  0  0  0  0  0  0  0  0  0  0
   27.0164   -0.7103   -8.9510 C   0  0  0  0  0  0  0  0  0  0  0  0
   28.0597   -0.9729   -8.1282 F   0  0  0  0  0  0  0  0  0  0  0  0
   25.7136   -0.8243   -8.5061 C   0  0  0  0  0  0  0  0  0  0  0  0
   24.6353   -0.5611   -9.3248 C   0  0  0  0  0  0  0  0  0  0  0  0
   24.8189   -0.1633  -10.6547 C   0  0  0  0  0  0  0  0  0  0  0  0
   23.6860    0.0812  -11.4016 O   0  0  0  0  0  0  0  0  0  0  0  0
   22.4157   -0.3058  -11.0117 C   0  0  0  0  0  0  0  0  0  0  0  0
   21.5382    0.5910  -10.4135 C   0  0  0  0  0  0  0  0  0  0  0  0
   20.2684    0.2401  -10.0177 C   0  0  0  0  0  0  0  0  0  0  0  0
   19.4746    1.1744   -9.4415 F   0  0  0  0  0  0  0  0  0  0  0  0
   19.8139   -1.0480  -10.2073 C   0  0  0  0  0  0  0  0  0  0  0  0
   20.6501   -1.9674  -10.7958 C   0  0  0  0  0  0  0  0  0  0  0  0
   20.2040   -3.2483  -10.9866 F   0  0  0  0  0  0  0  0  0  0  0  0
   21.9188   -1.5927  -11.1844 C   0  0  0  0  0  0  0  0  0  0  0  0
  1  2  2  0
  2  3  1  0
  3  4  2  0
  4  5  1  0
  5  6  1  0
  5  7  2  0
  7  8  1  0
  8  9  2  0
  9 10  1  0
 10 11  1  0
 11 12  2  0
 12 13  1  0
 13 14  1  0
 13 15  2  0
 15 16  1  0
 16 17  1  0
 16 18  2  0
  9  3  1  0
 18 11  1  0
M  END
$$$$
