_rank1
     RDKit          3D

 18 19  0  0  0  0  0  0  0  0999 V2000
   25.4731    0.8165  -13.4813 O   0  0  0  0  0  0  0  0  0  0  0  0
   26.1907    0.0716  -12.7887 C   0  0  0  0  0  0  0  0  0  0  0  0
   25.9121   -0.1201  -11.3874 C   0  0  0  0  0  0  0  0  0  0  0  0
   27.0084   -0.1470  -10.5189 C   0  0  0  0  0  0  0  0  0  0  0  0
   26.8534   -0.3940   -9.1768 C   0  0  0  0  0  0  0  0  0  0  0  0
   27.9063   -0.4227   -8.3252 F   0  0  0  0  0  0  0  0  0  0  0  0
   25.5669   -0.6144   -8.7247 C   0  0  0  0  0  0  0  0  0  0  0  0
   24.4792   -0.5890   -9.5723 C   0  0  0  0  0  0  0  0  0  0  0  0
   24.6361   -0.3359  -10.9405 C   0  0  0  0  0  0  0  0  0  0  0  0
   23.4953   -0.3270  -11.7148 O   0  0  0  0  0  0  0  0  0  0  0  0
   22.2274   -0.5571  -11.2097 C   0  0  0  0  0  0  0  0  0  0  0  0
   21.6040   -1.7909  -11.3551 C   0  0  0  0  0  0  0  0  0  0  0  0
   20.3470   -2.0538  -10.8623 C   0  0  0  0  0  0  0  0  0  0  0  0
   19.8096   -3.2837  -11.0463 F   0  0  0  0  0  0  0  0  0  0  0  0
   19.6468   -1.0743  -10.1900 C   0  0  0  0  0  0  0  0  0  0  0  0
   20.2269    0.1612  -10.0238 C   0  0  0  0  0  0  0  0  0  0  0  0
   19.5360    1.1379   -9.3568 F   0  0  0  0  0  0  0  0  0  0  0  0
   21.4881    0.4017  -10.5265 C   0  0  0  0  0  0  0  0  0  0  0  0
  1  2  2  0
  2  3  1  0
  3  4  2  0
  4  5  1  0
  5  6  1  0
  5  7  2  0
  7  8  1  0
  8  9  2  0
  9 10  1  0
 10 11  1  0
 11 12  2  0
 12 13  1  0
 13 14  1  0
 13 15  2  0
 15 16  1  0
 16 17  1  0
 16 18  2  0
  9  3  1  0
 18 11  1  0
M  END
$$$$
