_rank13
     RDKit          3D

 18 19  0  0  0  0  0  0  0  0999 V2000
   27.4590   -0.6582  -12.8616 O   0  0  0  0  0  0  0  0  0  0  0  0
   26.3966   -0.2344  -12.3702 C   0  0  0  0  0  0  0  0  0  0  0  0
   26.1794   -0.2751  -10.9458 C   0  0  0  0  0  0  0  0  0  0  0  0
   27.3047   -0.4616  -10.1359 C   0  0  0  0  0  0  0  0  0  0  0  0
   27.1939   -0.5849   -8.7725 C   0  0  0  0  0  0  0  0  0  0  0  0
   28.2752   -0.7657   -7.9771 F   0  0  0  0  0  0  0  0  0  0  0  0
   25.9219   -0.5163   -8.2385 C   0  0  0  0  0  0  0  0  0  0  0  0
   24.8061   -0.3316   -9.0279 C   0  0  0  0  0  0  0  0  0  0  0  0
   24.9182   -0.2045  -10.4178 C   0  0  0  0  0  0  0  0  0  0  0  0
   23.7521   -0.0206  -11.1301 O   0  0  0  0  0  0  0  0  0  0  0  0
   22.6585   -0.8636  -11.0361 C   0  0  0  0  0  0  0  0  0  0  0  0
   21.9173   -1.2145  -12.1583 C   0  0  0  0  0  0  0  0  0  0  0  0
   20.8279   -2.0523  -12.1003 C   0  0  0  0  0  0  0  0  0  0  0  0
   20.1586   -2.3450  -13.2412 F   0  0  0  0  0  0  0  0  0  0  0  0
   20.4261   -2.5850  -10.8935 C   0  0  0  0  0  0  0  0  0  0  0  0
   21.1318   -2.2637   -9.7579 C   0  0  0  0  0  0  0  0  0  0  0  0
   20.7373   -2.7899   -8.5564 F   0  0  0  0  0  0  0  0  0  0  0  0
   22.2206   -1.4217   -9.8404 C   0  0  0  0  0  0  0  0  0  0  0  0
  1  2  2  0
  2  3  1  0
  3  4  2  0
  4  5  1  0
  5  6  1  0
  5  7  2  0
  7  8  1  0
  8  9  2  0
  9 10  1  0
 10 11  1  0
 11 12  2  0
 12 13  1  0
 13 14  1  0
 13 15  2  0
 15 16  1  0
 16 17  1  0
 16 18  2  0
  9  3  1  0
 18 11  1  0
M  END
$$$$
