_rank4
     RDKit          3D

 18 19  0  0  0  0  0  0  0  0999 V2000
   27.6390    0.3737  -12.6263 O   0  0  0  0  0  0  0  0  0  0  0  0
   26.4581    0.1568  -12.2974 C   0  0  0  0  0  0  0  0  0  0  0  0
   26.1013   -0.0094  -10.9107 C   0  0  0  0  0  0  0  0  0  0  0  0
   27.1464   -0.0110   -9.9809 C   0  0  0  0  0  0  0  0  0  0  0  0
   26.9168   -0.2328   -8.6450 C   0  0  0  0  0  0  0  0  0  0  0  0
   27.9196   -0.2369   -7.7345 F   0  0  0  0  0  0  0  0  0  0  0  0
   25.6081   -0.4539   -8.2625 C   0  0  0  0  0  0  0  0  0  0  0  0
   24.5703   -0.4531   -9.1710 C   0  0  0  0  0  0  0  0  0  0  0  0
   24.8033   -0.2258  -10.5328 C   0  0  0  0  0  0  0  0  0  0  0  0
   23.7085   -0.2406  -11.3707 O   0  0  0  0  0  0  0  0  0  0  0  0
   22.4176   -0.4877  -10.9368 C   0  0  0  0  0  0  0  0  0  0  0  0
   21.6535    0.5066  -10.3373 C   0  0  0  0  0  0  0  0  0  0  0  0
   20.3670    0.2955   -9.8983 C   0  0  0  0  0  0  0  0  0  0  0  0
   19.6892    1.3182   -9.3240 F   0  0  0  0  0  0  0  0  0  0  0  0
   19.7792   -0.9435  -10.0435 C   0  0  0  0  0  0  0  0  0  0  0  0
   20.5004   -1.9558  -10.6316 C   0  0  0  0  0  0  0  0  0  0  0  0
   19.9216   -3.1886  -10.7784 F   0  0  0  0  0  0  0  0  0  0  0  0
   21.7884   -1.7208  -11.0639 C   0  0  0  0  0  0  0  0  0  0  0  0
  1  2  2  0
  2  3  1  0
  3  4  2  0
  4  5  1  0
  5  6  1  0
  5  7  2  0
  7  8  1  0
  8  9  2  0
  9 10  1  0
 10 11  1  0
 11 12  2  0
 12 13  1  0
 13 14  1  0
 13 15  2  0
 15 16  1  0
 16 17  1  0
 16 18  2  0
  9  3  1  0
 18 11  1  0
M  END
$$$$
