_rank15
     RDKit          3D

 18 19  0  0  0  0  0  0  0  0999 V2000
   25.3681   -2.2192   -7.1306 O   0  0  0  0  0  0  0  0  0  0  0  0
   25.7322   -2.0628   -8.3107 C   0  0  0  0  0  0  0  0  0  0  0  0
   25.5378   -0.7996   -8.9773 C   0  0  0  0  0  0  0  0  0  0  0  0
   26.6256    0.0795   -9.0038 C   0  0  0  0  0  0  0  0  0  0  0  0
   26.5198    1.3342   -9.5524 C   0  0  0  0  0  0  0  0  0  0  0  0
   27.5651    2.1949   -9.5845 F   0  0  0  0  0  0  0  0  0  0  0  0
   25.2913    1.6875  -10.0759 C   0  0  0  0  0  0  0  0  0  0  0  0
   24.2129    0.8279  -10.0558 C   0  0  0  0  0  0  0  0  0  0  0  0
   24.3203   -0.4518   -9.4980 C   0  0  0  0  0  0  0  0  0  0  0  0
   23.1937   -1.2464   -9.5217 O   0  0  0  0  0  0  0  0  0  0  0  0
   21.9800   -0.8355  -10.0449 C   0  0  0  0  0  0  0  0  0  0  0  0
   21.4952   -1.3536  -11.2401 C   0  0  0  0  0  0  0  0  0  0  0  0
   20.2922   -0.9699  -11.7855 C   0  0  0  0  0  0  0  0  0  0  0  0
   19.8910   -1.5233  -12.9552 F   0  0  0  0  0  0  0  0  0  0  0  0
   19.5079   -0.0333  -11.1458 C   0  0  0  0  0  0  0  0  0  0  0  0
   19.9501    0.5050   -9.9603 C   0  0  0  0  0  0  0  0  0  0  0  0
   19.1753    1.4357   -9.3204 F   0  0  0  0  0  0  0  0  0  0  0  0
   21.1596    0.1050   -9.4326 C   0  0  0  0  0  0  0  0  0  0  0  0
  1  2  2  0
  2  3  1  0
  3  4  2  0
  4  5  1  0
  5  6  1  0
  5  7  2  0
  7  8  1  0
  8  9  2  0
  9 10  1  0
 10 11  1  0
 11 12  2  0
 12 13  1  0
 13 14  1  0
 13 15  2  0
 15 16  1  0
 16 17  1  0
 16 18  2  0
  9  3  1  0
 18 11  1  0
M  END
$$$$
