_rank20
     RDKit          3D

 18 19  0  0  0  0  0  0  0  0999 V2000
   23.0926   -2.6868   -8.6420 O   0  0  0  0  0  0  0  0  0  0  0  0
   23.4701   -1.5077   -8.7723 C   0  0  0  0  0  0  0  0  0  0  0  0
   23.8125   -0.9863  -10.0718 C   0  0  0  0  0  0  0  0  0  0  0  0
   25.0356   -0.3171  -10.1865 C   0  0  0  0  0  0  0  0  0  0  0  0
   25.4201    0.2762  -11.3640 C   0  0  0  0  0  0  0  0  0  0  0  0
   26.6014    0.9271  -11.4884 F   0  0  0  0  0  0  0  0  0  0  0  0
   24.5446    0.1820  -12.4282 C   0  0  0  0  0  0  0  0  0  0  0  0
   23.3370   -0.4764  -12.3260 C   0  0  0  0  0  0  0  0  0  0  0  0
   22.9448   -1.0828  -11.1264 C   0  0  0  0  0  0  0  0  0  0  0  0
   21.7228   -1.7211  -11.1129 O   0  0  0  0  0  0  0  0  0  0  0  0
   20.5155   -1.0571  -10.9810 C   0  0  0  0  0  0  0  0  0  0  0  0
   20.4229    0.1444  -10.2884 C   0  0  0  0  0  0  0  0  0  0  0  0
   19.2402    0.8313  -10.1420 C   0  0  0  0  0  0  0  0  0  0  0  0
   19.2347    1.9969   -9.4516 F   0  0  0  0  0  0  0  0  0  0  0  0
   18.0774    0.3355  -10.6930 C   0  0  0  0  0  0  0  0  0  0  0  0
   18.1244   -0.8509  -11.3867 C   0  0  0  0  0  0  0  0  0  0  0  0
   16.9725   -1.3481  -11.9361 F   0  0  0  0  0  0  0  0  0  0  0  0
   19.3215   -1.5218  -11.5205 C   0  0  0  0  0  0  0  0  0  0  0  0
  1  2  2  0
  2  3  1  0
  3  4  2  0
  4  5  1  0
  5  6  1  0
  5  7  2  0
  7  8  1  0
  8  9  2  0
  9 10  1  0
 10 11  1  0
 11 12  2  0
 12 13  1  0
 13 14  1  0
 13 15  2  0
 15 16  1  0
 16 17  1  0
 16 18  2  0
  9  3  1  0
 18 11  1  0
M  END
$$$$
