_rank2
     RDKit          3D

 18 19  0  0  0  0  0  0  0  0999 V2000
   26.4357    0.9193  -13.1376 O   0  0  0  0  0  0  0  0  0  0  0  0
   26.5115   -0.1486  -12.5023 C   0  0  0  0  0  0  0  0  0  0  0  0
   26.1717   -0.1952  -11.1023 C   0  0  0  0  0  0  0  0  0  0  0  0
   27.2266   -0.1014  -10.1883 C   0  0  0  0  0  0  0  0  0  0  0  0
   27.0142   -0.2063   -8.8354 C   0  0  0  0  0  0  0  0  0  0  0  0
   28.0265   -0.1173   -7.9400 F   0  0  0  0  0  0  0  0  0  0  0  0
   25.7126   -0.4085   -8.4195 C   0  0  0  0  0  0  0  0  0  0  0  0
   24.6653   -0.5013   -9.3121 C   0  0  0  0  0  0  0  0  0  0  0  0
   24.8808   -0.3931  -10.6914 C   0  0  0  0  0  0  0  0  0  0  0  0
   23.7774   -0.4957  -11.5117 O   0  0  0  0  0  0  0  0  0  0  0  0
   22.4785   -0.5687  -11.0395 C   0  0  0  0  0  0  0  0  0  0  0  0
   21.8526    0.5345  -10.4709 C   0  0  0  0  0  0  0  0  0  0  0  0
   20.5624    0.4968   -9.9955 C   0  0  0  0  0  0  0  0  0  0  0  0
   20.0249    1.6168   -9.4552 F   0  0  0  0  0  0  0  0  0  0  0  0
   19.8294   -0.6689  -10.0701 C   0  0  0  0  0  0  0  0  0  0  0  0
   20.4108   -1.7844  -10.6255 C   0  0  0  0  0  0  0  0  0  0  0  0
   19.6875   -2.9451  -10.7023 F   0  0  0  0  0  0  0  0  0  0  0  0
   21.7056   -1.7229  -11.0956 C   0  0  0  0  0  0  0  0  0  0  0  0
  1  2  2  0
  2  3  1  0
  3  4  2  0
  4  5  1  0
  5  6  1  0
  5  7  2  0
  7  8  1  0
  8  9  2  0
  9 10  1  0
 10 11  1  0
 11 12  2  0
 12 13  1  0
 13 14  1  0
 13 15  2  0
 15 16  1  0
 16 17  1  0
 16 18  2  0
  9  3  1  0
 18 11  1  0
M  END
$$$$
