_rank17
     RDKit          3D

 18 19  0  0  0  0  0  0  0  0999 V2000
   20.3050   -0.8427   -7.9713 O   0  0  0  0  0  0  0  0  0  0  0  0
   21.4186   -0.7561   -8.5210 C   0  0  0  0  0  0  0  0  0  0  0  0
   21.6099   -1.2286   -9.8693 C   0  0  0  0  0  0  0  0  0  0  0  0
   20.6431   -2.1006  -10.3809 C   0  0  0  0  0  0  0  0  0  0  0  0
   20.7716   -2.6609  -11.6283 C   0  0  0  0  0  0  0  0  0  0  0  0
   19.8430   -3.5065  -12.1353 F   0  0  0  0  0  0  0  0  0  0  0  0
   21.8979   -2.3240  -12.3534 C   0  0  0  0  0  0  0  0  0  0  0  0
   22.8564   -1.4644  -11.8589 C   0  0  0  0  0  0  0  0  0  0  0  0
   22.7256   -0.8917  -10.5879 C   0  0  0  0  0  0  0  0  0  0  0  0
   23.7291   -0.0422  -10.1729 O   0  0  0  0  0  0  0  0  0  0  0  0
   25.0761   -0.3074  -10.3490 C   0  0  0  0  0  0  0  0  0  0  0  0
   25.8120    0.3192  -11.3478 C   0  0  0  0  0  0  0  0  0  0  0  0
   27.1520    0.0811  -11.5474 C   0  0  0  0  0  0  0  0  0  0  0  0
   27.7972    0.7335  -12.5440 F   0  0  0  0  0  0  0  0  0  0  0  0
   27.8256   -0.8114  -10.7403 C   0  0  0  0  0  0  0  0  0  0  0  0
   27.1351   -1.4535   -9.7395 C   0  0  0  0  0  0  0  0  0  0  0  0
   27.7990   -2.3410   -8.9347 F   0  0  0  0  0  0  0  0  0  0  0  0
   25.7921   -1.1989   -9.5583 C   0  0  0  0  0  0  0  0  0  0  0  0
  1  2  2  0
  2  3  1  0
  3  4  2  0
  4  5  1  0
  5  6  1  0
  5  7  2  0
  7  8  1  0
  8  9  2  0
  9 10  1  0
 10 11  1  0
 11 12  2  0
 12 13  1  0
 13 14  1  0
 13 15  2  0
 15 16  1  0
 16 17  1  0
 16 18  2  0
  9  3  1  0
 18 11  1  0
M  END
$$$$
