_rank4
     RDKit          3D

 19 20  0  0  0  0  0  0  0  0999 V2000
   19.0610    2.0641  -10.0412 C   0  0  0  0  0  0  0  0  0  0  0  0
   19.4729    1.3226  -11.2796 C   0  0  0  0  0  0  0  0  0  0  0  0
   20.3013    0.0956  -10.9679 C   0  0  2  0  0  0  0  0  0  0  0  0
   19.4722   -1.0660  -10.5357 C   0  0  0  0  0  0  0  0  0  0  0  0
   20.2377   -1.9534   -9.5937 C   0  0  0  0  0  0  0  0  0  0  0  0
   21.6826   -2.0966   -9.9494 C   0  0  1  0  0  0  0  0  0  0  0  0
   21.8879   -2.6887  -11.1927 O   0  0  0  0  0  0  0  0  0  0  0  0
   22.3396   -0.7426   -9.8428 C   0  0  1  0  0  0  0  0  0  0  0  0
   23.2987   -0.5238  -10.8338 O   0  0  0  0  0  0  0  0  0  0  0  0
   24.6317   -0.2839  -10.6881 C   0  0  0  0  0  0  0  0  0  0  0  0
   25.3468   -0.0313  -11.8653 C   0  0  0  0  0  0  0  0  0  0  0  0
   26.6930    0.2239  -11.8501 C   0  0  0  0  0  0  0  0  0  0  0  0
   27.3198    0.4585  -13.0211 F   0  0  0  0  0  0  0  0  0  0  0  0
   27.3281    0.2252  -10.6367 C   0  0  0  0  0  0  0  0  0  0  0  0
   26.6785   -0.0152   -9.4562 C   0  0  0  0  0  0  0  0  0  0  0  0
   27.3975   -0.0023   -8.2049 C   0  0  0  0  0  0  0  0  0  0  0  0
   27.9843    0.0259   -7.2027 N   0  0  0  0  0  0  0  0  0  0  0  0
   25.3111   -0.2720   -9.4957 C   0  0  0  0  0  0  0  0  0  0  0  0
   21.3149    0.3792   -9.8819 C   0  0  0  0  0  0  0  0  0  0  0  0
  2  1  1  1
  3  2  1  1
  4  3  1  6
  5  4  1  6
  5  6  1  0
  6  7  1  6
  6  8  1  0
  8  9  1  6
  9 10  1  0
 10 11  2  0
 11 12  1  0
 12 13  1  0
 12 14  2  0
 14 15  1  0
 15 16  1  0
 16 17  3  0
 15 18  2  0
 19  8  1  6
 19  3  1  0
 18 10  1  0
M  END
$$$$
