_rank20
     RDKit          3D

 19 20  0  0  0  0  0  0  0  0999 V2000
   21.0374    0.0915  -14.0297 C   0  0  0  0  0  0  0  0  0  0  0  0
   21.2328   -1.3140  -13.5406 C   0  0  0  0  0  0  0  0  0  0  0  0
   21.3949   -1.3841  -12.0380 C   0  0  2  0  0  0  0  0  0  0  0  0
   20.0920   -1.4940  -11.3214 C   0  0  0  0  0  0  0  0  0  0  0  0
   20.1718   -0.8638   -9.9586 C   0  0  0  0  0  0  0  0  0  0  0  0
   21.4792   -1.0925   -9.2705 C   0  0  1  0  0  0  0  0  0  0  0  0
   21.7439   -2.4368   -9.0230 O   0  0  0  0  0  0  0  0  0  0  0  0
   22.5688   -0.4321  -10.0786 C   0  0  1  0  0  0  0  0  0  0  0  0
   23.7551   -1.1685  -10.0965 O   0  0  0  0  0  0  0  0  0  0  0  0
   25.0383   -0.7120  -10.1190 C   0  0  0  0  0  0  0  0  0  0  0  0
   25.6041   -0.3959   -8.8776 C   0  0  0  0  0  0  0  0  0  0  0  0
   26.8870    0.0727   -8.7686 C   0  0  0  0  0  0  0  0  0  0  0  0
   27.3690    0.3580   -7.5417 F   0  0  0  0  0  0  0  0  0  0  0  0
   27.6102    0.2255   -9.9216 C   0  0  0  0  0  0  0  0  0  0  0  0
   27.1072   -0.0679  -11.1603 C   0  0  0  0  0  0  0  0  0  0  0  0
   27.9136    0.1126  -12.3434 C   0  0  0  0  0  0  0  0  0  0  0  0
   28.5646    0.2379  -13.2974 N   0  0  0  0  0  0  0  0  0  0  0  0
   25.8016   -0.5426  -11.2469 C   0  0  0  0  0  0  0  0  0  0  0  0
   22.1220   -0.1688  -11.5073 C   0  0  0  0  0  0  0  0  0  0  0  0
  2  1  1  1
  3  2  1  6
  4  3  1  6
  5  4  1  6
  5  6  1  0
  6  7  1  6
  6  8  1  0
  8  9  1  6
  9 10  1  0
 10 11  2  0
 11 12  1  0
 12 13  1  0
 12 14  2  0
 14 15  1  0
 15 16  1  0
 16 17  3  0
 15 18  2  0
 19  8  1  6
 19  3  1  0
 18 10  1  0
M  END
$$$$
