_rank10
     RDKit          3D

 19 20  0  0  0  0  0  0  0  0999 V2000
   19.0738    1.9910  -10.1853 C   0  0  0  0  0  0  0  0  0  0  0  0
   19.9149    1.1530   -9.2670 C   0  0  0  0  0  0  0  0  0  0  0  0
   20.5551   -0.0179   -9.9798 C   0  0  2  0  0  0  0  0  0  0  0  0
   19.5932   -1.1246  -10.2506 C   0  0  0  0  0  0  0  0  0  0  0  0
   20.2932   -2.4553  -10.2652 C   0  0  0  0  0  0  0  0  0  0  0  0
   21.6496   -2.4098  -10.8921 C   0  0  1  0  0  0  0  0  0  0  0  0
   21.6242   -2.0412  -12.2344 O   0  0  0  0  0  0  0  0  0  0  0  0
   22.5304   -1.5060  -10.0651 C   0  0  1  0  0  0  0  0  0  0  0  0
   23.4051   -0.7415  -10.8398 O   0  0  0  0  0  0  0  0  0  0  0  0
   24.7356   -0.5193  -10.6498 C   0  0  0  0  0  0  0  0  0  0  0  0
   25.5091   -0.3699  -11.8076 C   0  0  0  0  0  0  0  0  0  0  0  0
   26.8590   -0.1426  -11.7482 C   0  0  0  0  0  0  0  0  0  0  0  0
   27.5435   -0.0088  -12.9025 F   0  0  0  0  0  0  0  0  0  0  0  0
   27.4385   -0.0644  -10.5097 C   0  0  0  0  0  0  0  0  0  0  0  0
   26.7307   -0.2027   -9.3465 C   0  0  0  0  0  0  0  0  0  0  0  0
   27.3926   -0.1119   -8.0673 C   0  0  0  0  0  0  0  0  0  0  0  0
   27.9314   -0.0201   -7.0422 N   0  0  0  0  0  0  0  0  0  0  0  0
   25.3606   -0.4331   -9.4311 C   0  0  0  0  0  0  0  0  0  0  0  0
   21.7083   -0.5828   -9.1808 C   0  0  0  0  0  0  0  0  0  0  0  0
  2  1  1  1
  3  2  1  1
  4  3  1  6
  5  4  1  6
  5  6  1  0
  6  7  1  6
  6  8  1  0
  8  9  1  6
  9 10  1  0
 10 11  2  0
 11 12  1  0
 12 13  1  0
 12 14  2  0
 14 15  1  0
 15 16  1  0
 16 17  3  0
 15 18  2  0
 19  8  1  6
 19  3  1  0
 18 10  1  0
M  END
$$$$
