_rank12
     RDKit          3D

 19 20  0  0  0  0  0  0  0  0999 V2000
   27.8868    0.3653  -11.6142 C   0  0  0  0  0  0  0  0  0  0  0  0
   27.1423    1.0568  -10.5095 C   0  0  0  0  0  0  0  0  0  0  0  0
   26.0544    0.1889   -9.9163 C   0  0  2  0  0  0  0  0  0  0  0  0
   26.5896   -0.8742   -9.0181 C   0  0  0  0  0  0  0  0  0  0  0  0
   25.6980   -2.0849   -9.0254 C   0  0  0  0  0  0  0  0  0  0  0  0
   24.2414   -1.7536   -9.0849 C   0  0  1  0  0  0  0  0  0  0  0  0
   23.7958   -1.0284   -7.9831 O   0  0  0  0  0  0  0  0  0  0  0  0
   23.9629   -1.0466  -10.3883 C   0  0  1  0  0  0  0  0  0  0  0  0
   23.0179   -0.0262  -10.2626 O   0  0  0  0  0  0  0  0  0  0  0  0
   21.6908   -0.0548  -10.5684 C   0  0  0  0  0  0  0  0  0  0  0  0
   21.3040   -0.9657  -11.5592 C   0  0  0  0  0  0  0  0  0  0  0  0
   19.9980   -1.0887  -11.9550 C   0  0  0  0  0  0  0  0  0  0  0  0
   19.6952   -1.9860  -12.9153 F   0  0  0  0  0  0  0  0  0  0  0  0
   19.0693   -0.2862  -11.3473 C   0  0  0  0  0  0  0  0  0  0  0  0
   19.3918    0.6205  -10.3741 C   0  0  0  0  0  0  0  0  0  0  0  0
   18.3723    1.4423   -9.7672 C   0  0  0  0  0  0  0  0  0  0  0  0
   17.5486    2.0892   -9.2649 N   0  0  0  0  0  0  0  0  0  0  0  0
   20.7247    0.7283   -9.9880 C   0  0  0  0  0  0  0  0  0  0  0  0
   25.2343   -0.4786  -10.9976 C   0  0  0  0  0  0  0  0  0  0  0  0
  2  1  1  1
  3  2  1  6
  4  3  1  6
  5  4  1  6
  5  6  1  0
  6  7  1  1
  6  8  1  0
  8  9  1  1
  9 10  1  0
 10 11  2  0
 11 12  1  0
 12 13  1  0
 12 14  2  0
 14 15  1  0
 15 16  1  0
 16 17  3  0
 15 18  2  0
 19  8  1  6
 19  3  1  0
 18 10  1  0
M  END
$$$$
