_rank15
     RDKit          3D

 19 20  0  0  0  0  0  0  0  0999 V2000
   19.1997    1.1661  -12.3028 C   0  0  0  0  0  0  0  0  0  0  0  0
   19.7570   -0.1950  -12.6025 C   0  0  0  0  0  0  0  0  0  0  0  0
   20.4936   -0.7890  -11.4221 C   0  0  2  0  0  0  0  0  0  0  0  0
   19.5749   -1.3716  -10.4023 C   0  0  0  0  0  0  0  0  0  0  0  0
   20.1748   -1.2876   -9.0262 C   0  0  0  0  0  0  0  0  0  0  0  0
   21.6491   -1.5343   -9.0013 C   0  0  1  0  0  0  0  0  0  0  0  0
   22.0016   -2.8104   -9.4322 O   0  0  0  0  0  0  0  0  0  0  0  0
   22.3306   -0.4502   -9.7992 C   0  0  1  0  0  0  0  0  0  0  0  0
   23.4224   -0.9193  -10.5326 O   0  0  0  0  0  0  0  0  0  0  0  0
   24.7182   -0.5014  -10.4887 C   0  0  0  0  0  0  0  0  0  0  0  0
   25.2464    0.0022  -11.6840 C   0  0  0  0  0  0  0  0  0  0  0  0
   26.5374    0.4534  -11.7678 C   0  0  0  0  0  0  0  0  0  0  0  0
   26.9818    0.9252  -12.9505 F   0  0  0  0  0  0  0  0  0  0  0  0
   27.3070    0.3979  -10.6362 C   0  0  0  0  0  0  0  0  0  0  0  0
   26.8421   -0.0842   -9.4426 C   0  0  0  0  0  0  0  0  0  0  0  0
   27.6972   -0.1205   -8.2806 C   0  0  0  0  0  0  0  0  0  0  0  0
   28.3691   -0.1488   -7.3334 N   0  0  0  0  0  0  0  0  0  0  0  0
   25.5274   -0.5372   -9.3809 C   0  0  0  0  0  0  0  0  0  0  0  0
   21.3590    0.2457  -10.7383 C   0  0  0  0  0  0  0  0  0  0  0  0
  2  1  1  1
  3  2  1  6
  4  3  1  6
  5  4  1  6
  5  6  1  0
  6  7  1  6
  6  8  1  0
  8  9  1  6
  9 10  1  0
 10 11  2  0
 11 12  1  0
 12 13  1  0
 12 14  2  0
 14 15  1  0
 15 16  1  0
 16 17  3  0
 15 18  2  0
 19  8  1  6
 19  3  1  0
 18 10  1  0
M  END
$$$$
