_rank3
     RDKit          3D

 19 20  0  0  0  0  0  0  0  0999 V2000
   27.1827    0.2863  -12.7606 C   0  0  0  0  0  0  0  0  0  0  0  0
   27.5504    0.9804  -11.4815 C   0  0  0  0  0  0  0  0  0  0  0  0
   26.8360    0.3962  -10.2827 C   0  0  2  0  0  0  0  0  0  0  0  0
   27.7752   -0.1339   -9.2530 C   0  0  0  0  0  0  0  0  0  0  0  0
   27.1563   -1.2765   -8.4965 C   0  0  0  0  0  0  0  0  0  0  0  0
   25.6983   -1.0913   -8.2226 C   0  0  1  0  0  0  0  0  0  0  0  0
   25.4241    0.0146   -7.4224 O   0  0  0  0  0  0  0  0  0  0  0  0
   24.9648   -1.0428   -9.5401 C   0  0  1  0  0  0  0  0  0  0  0  0
   23.9098   -0.1279   -9.5419 O   0  0  0  0  0  0  0  0  0  0  0  0
   22.6242   -0.3145   -9.9518 C   0  0  0  0  0  0  0  0  0  0  0  0
   21.7790    0.7986   -9.8623 C   0  0  0  0  0  0  0  0  0  0  0  0
   20.4643    0.7377  -10.2436 C   0  0  0  0  0  0  0  0  0  0  0  0
   19.7063    1.8475  -10.1304 F   0  0  0  0  0  0  0  0  0  0  0  0
   19.9934   -0.4566  -10.7206 C   0  0  0  0  0  0  0  0  0  0  0  0
   20.7748   -1.5750  -10.8293 C   0  0  0  0  0  0  0  0  0  0  0  0
   20.2264   -2.8091  -11.3385 C   0  0  0  0  0  0  0  0  0  0  0  0
   19.7919   -3.8120  -11.7320 N   0  0  0  0  0  0  0  0  0  0  0  0
   22.1073   -1.4899  -10.4361 C   0  0  0  0  0  0  0  0  0  0  0  0
   25.9053   -0.7239  -10.6907 C   0  0  0  0  0  0  0  0  0  0  0  0
  2  1  1  1
  3  2  1  6
  4  3  1  6
  5  4  1  6
  5  6  1  0
  6  7  1  6
  6  8  1  0
  8  9  1  1
  9 10  1  0
 10 11  2  0
 11 12  1  0
 12 13  1  0
 12 14  2  0
 14 15  1  0
 15 16  1  0
 16 17  3  0
 15 18  2  0
 19  8  1  6
 19  3  1  0
 18 10  1  0
M  END
$$$$
