_rank16
     RDKit          3D

 19 20  0  0  0  0  0  0  0  0999 V2000
   19.7569    1.7321  -11.9103 C   0  0  0  0  0  0  0  0  0  0  0  0
   19.4135    0.3262  -12.3087 C   0  0  0  0  0  0  0  0  0  0  0  0
   20.0605   -0.7025  -11.4078 C   0  0  2  0  0  0  0  0  0  0  0  0
   19.0903   -1.7115  -10.8940 C   0  0  0  0  0  0  0  0  0  0  0  0
   19.5113   -2.2257   -9.5452 C   0  0  0  0  0  0  0  0  0  0  0  0
   20.9894   -2.4025   -9.4081 C   0  0  1  0  0  0  0  0  0  0  0  0
   21.5166   -3.3399  -10.2923 O   0  0  0  0  0  0  0  0  0  0  0  0
   21.6488   -1.0521   -9.5427 C   0  0  1  0  0  0  0  0  0  0  0  0
   22.8613   -1.1052  -10.2333 O   0  0  0  0  0  0  0  0  0  0  0  0
   24.0123   -0.4209   -9.9831 C   0  0  0  0  0  0  0  0  0  0  0  0
   24.0010    0.9438  -10.2969 C   0  0  0  0  0  0  0  0  0  0  0  0
   25.0972    1.7397  -10.0914 C   0  0  0  0  0  0  0  0  0  0  0  0
   25.0177    3.0462  -10.4165 F   0  0  0  0  0  0  0  0  0  0  0  0
   26.2187    1.1566   -9.5640 C   0  0  0  0  0  0  0  0  0  0  0  0
   26.2847   -0.1714   -9.2392 C   0  0  0  0  0  0  0  0  0  0  0  0
   27.4931   -0.7344   -8.6865 C   0  0  0  0  0  0  0  0  0  0  0  0
   28.4556   -1.1927   -8.2248 N   0  0  0  0  0  0  0  0  0  0  0  0
   25.1590   -0.9607   -9.4566 C   0  0  0  0  0  0  0  0  0  0  0  0
   20.7307   -0.0481  -10.2205 C   0  0  0  0  0  0  0  0  0  0  0  0
  2  1  1  1
  3  2  1  1
  4  3  1  6
  5  4  1  6
  5  6  1  0
  6  7  1  6
  6  8  1  0
  8  9  1  6
  9 10  1  0
 10 11  2  0
 11 12  1  0
 12 13  1  0
 12 14  2  0
 14 15  1  0
 15 16  1  0
 16 17  3  0
 15 18  2  0
 19  8  1  6
 19  3  1  0
 18 10  1  0
M  END
$$$$
