_rank6
     RDKit          3D

 19 20  0  0  0  0  0  0  0  0999 V2000
   28.2076    0.5651  -12.4850 C   0  0  0  0  0  0  0  0  0  0  0  0
   27.3534    1.3915  -11.5682 C   0  0  0  0  0  0  0  0  0  0  0  0
   26.6577    0.5539  -10.5178 C   0  0  2  0  0  0  0  0  0  0  0  0
   27.6128   -0.1886   -9.6461 C   0  0  0  0  0  0  0  0  0  0  0  0
   27.0052   -1.4723   -9.1523 C   0  0  0  0  0  0  0  0  0  0  0  0
   25.5519   -1.3567   -8.8213 C   0  0  1  0  0  0  0  0  0  0  0  0
   25.2912   -0.4566   -7.7917 O   0  0  0  0  0  0  0  0  0  0  0  0
   24.7976   -1.0193  -10.0837 C   0  0  1  0  0  0  0  0  0  0  0  0
   23.7433   -0.1299   -9.8661 O   0  0  0  0  0  0  0  0  0  0  0  0
   22.4278   -0.2765  -10.1880 C   0  0  0  0  0  0  0  0  0  0  0  0
   22.0914   -1.4325  -10.9032 C   0  0  0  0  0  0  0  0  0  0  0  0
   20.8018   -1.6938  -11.2854 C   0  0  0  0  0  0  0  0  0  0  0  0
   20.5480   -2.8260  -11.9728 F   0  0  0  0  0  0  0  0  0  0  0  0
   19.8385   -0.7818  -10.9445 C   0  0  0  0  0  0  0  0  0  0  0  0
   20.1113    0.3636  -10.2468 C   0  0  0  0  0  0  0  0  0  0  0  0
   19.0570    1.2913   -9.9142 C   0  0  0  0  0  0  0  0  0  0  0  0
   18.2206    2.0469   -9.6331 N   0  0  0  0  0  0  0  0  0  0  0  0
   21.4284    0.6083   -9.8689 C   0  0  0  0  0  0  0  0  0  0  0  0
   25.7199   -0.4505  -11.1495 C   0  0  0  0  0  0  0  0  0  0  0  0
  2  1  1  1
  3  2  1  6
  4  3  1  6
  5  4  1  6
  5  6  1  0
  6  7  1  1
  6  8  1  0
  8  9  1  1
  9 10  1  0
 10 11  2  0
 11 12  1  0
 12 13  1  0
 12 14  2  0
 14 15  1  0
 15 16  1  0
 16 17  3  0
 15 18  2  0
 19  8  1  6
 19  3  1  0
 18 10  1  0
M  END
$$$$
