_rank8
     RDKit          3D

 19 20  0  0  0  0  0  0  0  0999 V2000
   19.4091    1.6707   -9.5778 C   0  0  0  0  0  0  0  0  0  0  0  0
   20.0600    1.2414  -10.8605 C   0  0  0  0  0  0  0  0  0  0  0  0
   20.5137   -0.2013  -10.8219 C   0  0  2  0  0  0  0  0  0  0  0  0
   19.3805   -1.1589  -10.6729 C   0  0  0  0  0  0  0  0  0  0  0  0
   19.8163   -2.4002   -9.9447 C   0  0  0  0  0  0  0  0  0  0  0  0
   21.1956   -2.8506  -10.3045 C   0  0  1  0  0  0  0  0  0  0  0  0
   21.3296   -3.1971  -11.6463 O   0  0  0  0  0  0  0  0  0  0  0  0
   22.1740   -1.7804   -9.8875 C   0  0  1  0  0  0  0  0  0  0  0  0
   23.2269   -1.6239  -10.7913 O   0  0  0  0  0  0  0  0  0  0  0  0
   24.4685   -1.1095  -10.5686 C   0  0  0  0  0  0  0  0  0  0  0  0
   25.0002   -1.3096   -9.2886 C   0  0  0  0  0  0  0  0  0  0  0  0
   26.2398   -0.8402   -8.9417 C   0  0  0  0  0  0  0  0  0  0  0  0
   26.6907   -1.0679   -7.6911 F   0  0  0  0  0  0  0  0  0  0  0  0
   26.9538   -0.1612   -9.8930 C   0  0  0  0  0  0  0  0  0  0  0  0
   26.4827    0.0627  -11.1584 C   0  0  0  0  0  0  0  0  0  0  0  0
   27.2774    0.7855  -12.1222 C   0  0  0  0  0  0  0  0  0  0  0  0
   27.9002    1.3730  -12.9074 N   0  0  0  0  0  0  0  0  0  0  0  0
   25.2209   -0.4233  -11.4886 C   0  0  0  0  0  0  0  0  0  0  0  0
   21.4838   -0.4412   -9.6868 C   0  0  0  0  0  0  0  0  0  0  0  0
  2  1  1  1
  3  2  1  1
  4  3  1  6
  5  4  1  6
  5  6  1  0
  6  7  1  6
  6  8  1  0
  8  9  1  6
  9 10  1  0
 10 11  2  0
 11 12  1  0
 12 13  1  0
 12 14  2  0
 14 15  1  0
 15 16  1  0
 16 17  3  0
 15 18  2  0
 19  8  1  6
 19  3  1  0
 18 10  1  0
M  END
$$$$
