_rank14
     RDKit          3D

 19 20  0  0  0  0  0  0  0  0999 V2000
   19.1250    0.8714  -12.9815 C   0  0  0  0  0  0  0  0  0  0  0  0
   19.7469    1.1578  -11.6457 C   0  0  0  0  0  0  0  0  0  0  0  0
   20.6168    0.0198  -11.1590 C   0  0  2  0  0  0  0  0  0  0  0  0
   19.8385   -1.2185  -10.8691 C   0  0  0  0  0  0  0  0  0  0  0  0
   20.4937   -2.0247   -9.7821 C   0  0  0  0  0  0  0  0  0  0  0  0
   21.9869   -2.0231   -9.8549 C   0  0  1  0  0  0  0  0  0  0  0  0
   22.4821   -2.5923  -11.0251 O   0  0  0  0  0  0  0  0  0  0  0  0
   22.4758   -0.6103   -9.6522 C   0  0  1  0  0  0  0  0  0  0  0  0
   23.5799   -0.2972  -10.4478 O   0  0  0  0  0  0  0  0  0  0  0  0
   24.9028   -0.3664  -10.1305 C   0  0  0  0  0  0  0  0  0  0  0  0
   25.2785    0.2183   -8.9147 C   0  0  0  0  0  0  0  0  0  0  0  0
   26.5793    0.2140   -8.4843 C   0  0  0  0  0  0  0  0  0  0  0  0
   26.8716    0.7957   -7.3032 F   0  0  0  0  0  0  0  0  0  0  0  0
   27.5141   -0.3855   -9.2860 C   0  0  0  0  0  0  0  0  0  0  0  0
   27.2025   -0.9717  -10.4829 C   0  0  0  0  0  0  0  0  0  0  0  0
   28.2282   -1.5892  -11.2888 C   0  0  0  0  0  0  0  0  0  0  0  0
   29.0448   -2.1041  -11.9349 N   0  0  0  0  0  0  0  0  0  0  0  0
   25.8747   -0.9553  -10.8999 C   0  0  0  0  0  0  0  0  0  0  0  0
   21.3725    0.4037   -9.9065 C   0  0  0  0  0  0  0  0  0  0  0  0
  2  1  1  1
  3  2  1  1
  4  3  1  6
  5  4  1  6
  5  6  1  0
  6  7  1  6
  6  8  1  0
  8  9  1  6
  9 10  1  0
 10 11  2  0
 11 12  1  0
 12 13  1  0
 12 14  2  0
 14 15  1  0
 15 16  1  0
 16 17  3  0
 15 18  2  0
 19  8  1  6
 19  3  1  0
 18 10  1  0
M  END
$$$$
