_rank11
     RDKit          3D

 19 20  0  0  0  0  0  0  0  0999 V2000
   27.7940    0.9814  -11.2832 C   0  0  0  0  0  0  0  0  0  0  0  0
   27.0866    0.9947   -9.9594 C   0  0  0  0  0  0  0  0  0  0  0  0
   26.0642   -0.1141   -9.8410 C   0  0  2  0  0  0  0  0  0  0  0  0
   26.6839   -1.4453   -9.5820 C   0  0  0  0  0  0  0  0  0  0  0  0
   25.8446   -2.5517  -10.1587 C   0  0  0  0  0  0  0  0  0  0  0  0
   24.3742   -2.3191  -10.0219 C   0  0  1  0  0  0  0  0  0  0  0  0
   23.9489   -2.2447   -8.6982 O   0  0  0  0  0  0  0  0  0  0  0  0
   24.0074   -1.0878  -10.8129 C   0  0  1  0  0  0  0  0  0  0  0  0
   23.0269   -0.3130  -10.1897 O   0  0  0  0  0  0  0  0  0  0  0  0
   21.6799   -0.3236  -10.3919 C   0  0  0  0  0  0  0  0  0  0  0  0
   21.1730   -1.4042  -11.1243 C   0  0  0  0  0  0  0  0  0  0  0  0
   19.8353   -1.5278  -11.3941 C   0  0  0  0  0  0  0  0  0  0  0  0
   19.4151   -2.5938  -12.1055 F   0  0  0  0  0  0  0  0  0  0  0  0
   18.9968   -0.5532  -10.9220 C   0  0  0  0  0  0  0  0  0  0  0  0
   19.4381    0.5236  -10.2015 C   0  0  0  0  0  0  0  0  0  0  0  0
   18.5101    1.5225   -9.7284 C   0  0  0  0  0  0  0  0  0  0  0  0
   17.7479    2.3135   -9.3504 N   0  0  0  0  0  0  0  0  0  0  0  0
   20.8010    0.6285   -9.9394 C   0  0  0  0  0  0  0  0  0  0  0  0
   25.2248   -0.2224  -11.0943 C   0  0  0  0  0  0  0  0  0  0  0  0
  2  1  1  1
  3  2  1  6
  4  3  1  6
  5  4  1  6
  5  6  1  0
  6  7  1  1
  6  8  1  0
  8  9  1  1
  9 10  1  0
 10 11  2  0
 11 12  1  0
 12 13  1  0
 12 14  2  0
 14 15  1  0
 15 16  1  0
 16 17  3  0
 15 18  2  0
 19  8  1  6
 19  3  1  0
 18 10  1  0
M  END
$$$$
