_rank2
     RDKit          3D

 19 20  0  0  0  0  0  0  0  0999 V2000
   26.2524    0.7582  -12.9183 C   0  0  0  0  0  0  0  0  0  0  0  0
   27.2410    0.8494  -11.7926 C   0  0  0  0  0  0  0  0  0  0  0  0
   26.6854    0.3111  -10.4925 C   0  0  2  0  0  0  0  0  0  0  0  0
   27.7456   -0.2152   -9.5856 C   0  0  0  0  0  0  0  0  0  0  0  0
   27.2134   -1.3245   -8.7214 C   0  0  0  0  0  0  0  0  0  0  0  0
   25.8102   -1.0993   -8.2573 C   0  0  1  0  0  0  0  0  0  0  0  0
   25.6691    0.0318   -7.4578 O   0  0  0  0  0  0  0  0  0  0  0  0
   24.9052   -1.0660   -9.4639 C   0  0  1  0  0  0  0  0  0  0  0  0
   23.8777   -0.1275   -9.3476 O   0  0  0  0  0  0  0  0  0  0  0  0
   22.5795   -0.2351   -9.7458 C   0  0  0  0  0  0  0  0  0  0  0  0
   22.2225   -1.4354  -10.3726 C   0  0  0  0  0  0  0  0  0  0  0  0
   20.9472   -1.6642  -10.8183 C   0  0  0  0  0  0  0  0  0  0  0  0
   20.6721   -2.8426  -11.4139 F   0  0  0  0  0  0  0  0  0  0  0  0
   20.0192   -0.6743  -10.6316 C   0  0  0  0  0  0  0  0  0  0  0  0
   20.3134    0.5172  -10.0256 C   0  0  0  0  0  0  0  0  0  0  0  0
   19.2963    1.5267   -9.8551 C   0  0  0  0  0  0  0  0  0  0  0  0
   18.4796    2.3444   -9.7373 N   0  0  0  0  0  0  0  0  0  0  0  0
   21.6154    0.7276   -9.5808 C   0  0  0  0  0  0  0  0  0  0  0  0
   25.6862   -0.7969  -10.7398 C   0  0  0  0  0  0  0  0  0  0  0  0
  2  1  1  1
  3  2  1  6
  4  3  1  6
  5  4  1  6
  5  6  1  0
  6  7  1  6
  6  8  1  0
  8  9  1  1
  9 10  1  0
 10 11  2  0
 11 12  1  0
 12 13  1  0
 12 14  2  0
 14 15  1  0
 15 16  1  0
 16 17  3  0
 15 18  2  0
 19  8  1  6
 19  3  1  0
 18 10  1  0
M  END
$$$$
