_rank16
     RDKit          3D

 19 20  0  0  0  0  0  0  0  0999 V2000
   22.1896    0.7449  -12.8225 C   0  0  0  0  0  0  0  0  0  0  0  0
   22.1669    0.3657  -11.3553 C   0  0  1  0  0  0  0  0  0  0  0  0
   20.7771    0.5043  -10.8525 C   0  0  0  0  0  0  0  0  0  0  0  0
   20.4261   -0.3527   -9.6887 C   0  0  1  0  0  0  0  0  0  0  0  0
   18.8986   -0.3685   -9.5743 C   0  0  0  0  0  0  0  0  0  0  0  0
   20.9220   -1.7738   -9.8131 C   0  0  0  0  0  0  0  0  0  0  0  0
   21.5706   -2.0183  -11.1549 C   0  0  1  0  0  0  0  0  0  0  0  0
   20.7546   -1.7582  -12.2232 O   0  0  0  0  0  0  0  0  0  0  0  0
   22.7380   -1.0222  -11.2332 C   0  0  2  0  0  0  0  0  0  0  0  0
   23.4772   -1.1329  -10.0510 O   0  0  0  0  0  0  0  0  0  0  0  0
   24.8320   -0.9830   -9.9174 C   0  0  0  0  0  0  0  0  0  0  0  0
   25.6634   -1.5956  -10.8494 C   0  0  0  0  0  0  0  0  0  0  0  0
   27.0155   -1.4861  -10.7737 C   0  0  0  0  0  0  0  0  0  0  0  0
   27.8009   -2.0965  -11.6998 F   0  0  0  0  0  0  0  0  0  0  0  0
   27.5762   -0.7579   -9.7596 C   0  0  0  0  0  0  0  0  0  0  0  0
   26.8093   -0.1351   -8.8168 C   0  0  0  0  0  0  0  0  0  0  0  0
   27.3691    0.6362   -7.7407 C   0  0  0  0  0  0  0  0  0  0  0  0
   27.8324    1.2579   -6.8705 N   0  0  0  0  0  0  0  0  0  0  0  0
   25.4220   -0.2661   -8.9213 C   0  0  0  0  0  0  0  0  0  0  0  0
  2  1  1  6
  3  2  1  6
  3  4  1  0
  4  5  1  6
  4  6  1  0
  6  7  1  6
  7  8  1  6
  7  9  1  0
  9 10  1  1
 10 11  1  0
 11 12  2  0
 12 13  1  0
 13 14  1  0
 13 15  2  0
 15 16  1  0
 16 17  1  0
 17 18  3  0
 16 19  2  0
  9  2  1  0
 19 11  1  0
M  END
$$$$
