_rank20
     RDKit          3D

 19 20  0  0  0  0  0  0  0  0999 V2000
   26.8507   -2.0862   -8.7530 C   0  0  0  0  0  0  0  0  0  0  0  0
   26.3461   -0.7781   -9.3285 C   0  0  1  0  0  0  0  0  0  0  0  0
   27.4940   -0.0496   -9.9244 C   0  0  0  0  0  0  0  0  0  0  0  0
   27.1554    0.8977  -11.0199 C   0  0  1  0  0  0  0  0  0  0  0  0
   28.4574    1.2373  -11.7519 C   0  0  0  0  0  0  0  0  0  0  0  0
   26.1652    0.3415  -12.0154 C   0  0  0  0  0  0  0  0  0  0  0  0
   25.8328   -1.1015  -11.7184 C   0  0  1  0  0  0  0  0  0  0  0  0
   26.9225   -1.9302  -11.6948 O   0  0  0  0  0  0  0  0  0  0  0  0
   25.2420   -1.1021  -10.2999 C   0  0  2  0  0  0  0  0  0  0  0  0
   24.2528   -0.1148  -10.2460 O   0  0  0  0  0  0  0  0  0  0  0  0
   23.0412   -0.2058   -9.6140 C   0  0  0  0  0  0  0  0  0  0  0  0
   21.8883    0.0589  -10.3460 C   0  0  0  0  0  0  0  0  0  0  0  0
   20.6558   -0.0136   -9.7789 C   0  0  0  0  0  0  0  0  0  0  0  0
   19.5483    0.2508  -10.5209 F   0  0  0  0  0  0  0  0  0  0  0  0
   20.5414   -0.3544   -8.4583 C   0  0  0  0  0  0  0  0  0  0  0  0
   21.6385   -0.6248   -7.6913 C   0  0  0  0  0  0  0  0  0  0  0  0
   21.5500   -0.9850   -6.3025 C   0  0  0  0  0  0  0  0  0  0  0  0
   21.4822   -1.2679   -5.1739 N   0  0  0  0  0  0  0  0  0  0  0  0
   22.8921   -0.5418   -8.3028 C   0  0  0  0  0  0  0  0  0  0  0  0
  2  1  1  6
  3  2  1  6
  3  4  1  0
  4  5  1  6
  4  6  1  0
  6  7  1  6
  7  8  1  1
  7  9  1  0
  9 10  1  6
 10 11  1  0
 11 12  2  0
 12 13  1  0
 13 14  1  0
 13 15  2  0
 15 16  1  0
 16 17  1  0
 17 18  3  0
 16 19  2  0
  9  2  1  0
 19 11  1  0
M  END
$$$$
