_rank11
     RDKit          3D

 19 20  0  0  0  0  0  0  0  0999 V2000
   25.2540   -3.0027  -10.9707 C   0  0  0  0  0  0  0  0  0  0  0  0
   25.0208   -1.7296  -10.1821 C   0  0  1  0  0  0  0  0  0  0  0  0
   26.3054   -1.3130   -9.5660 C   0  0  0  0  0  0  0  0  0  0  0  0
   26.4421    0.1413   -9.2858 C   0  0  1  0  0  0  0  0  0  0  0  0
   27.9272    0.4233   -9.0375 C   0  0  0  0  0  0  0  0  0  0  0  0
   25.9587    1.0222  -10.4132 C   0  0  0  0  0  0  0  0  0  0  0  0
   25.5468    0.2063  -11.6155 C   0  0  1  0  0  0  0  0  0  0  0  0
   26.5366   -0.6040  -12.1041 O   0  0  0  0  0  0  0  0  0  0  0  0
   24.4214   -0.7150  -11.1194 C   0  0  2  0  0  0  0  0  0  0  0  0
   23.4895    0.0741  -10.4374 O   0  0  0  0  0  0  0  0  0  0  0  0
   22.1255   -0.0193  -10.5176 C   0  0  0  0  0  0  0  0  0  0  0  0
   21.5692   -0.7344  -11.5732 C   0  0  0  0  0  0  0  0  0  0  0  0
   20.2239   -0.8650  -11.7104 C   0  0  0  0  0  0  0  0  0  0  0  0
   19.7112   -1.5701  -12.7530 F   0  0  0  0  0  0  0  0  0  0  0  0
   19.3938   -0.2817  -10.7918 C   0  0  0  0  0  0  0  0  0  0  0  0
   19.8838    0.4318   -9.7356 C   0  0  0  0  0  0  0  0  0  0  0  0
   19.0374    1.0554   -8.7553 C   0  0  0  0  0  0  0  0  0  0  0  0
   18.3579    1.5585   -7.9531 N   0  0  0  0  0  0  0  0  0  0  0  0
   21.2716    0.5484   -9.6215 C   0  0  0  0  0  0  0  0  0  0  0  0
  2  1  1  6
  3  2  1  6
  3  4  1  0
  4  5  1  6
  4  6  1  0
  6  7  1  6
  7  8  1  1
  7  9  1  0
  9 10  1  1
 10 11  1  0
 11 12  2  0
 12 13  1  0
 13 14  1  0
 13 15  2  0
 15 16  1  0
 16 17  1  0
 17 18  3  0
 16 19  2  0
  9  2  1  0
 19 11  1  0
M  END
$$$$
