_rank13
     RDKit          3D

 19 20  0  0  0  0  0  0  0  0999 V2000
   21.8499   -1.1807  -13.2314 C   0  0  0  0  0  0  0  0  0  0  0  0
   21.9145   -0.4964  -11.8806 C   0  0  1  0  0  0  0  0  0  0  0  0
   20.5292   -0.2290  -11.4194 C   0  0  0  0  0  0  0  0  0  0  0  0
   20.3484   -0.1387   -9.9458 C   0  0  1  0  0  0  0  0  0  0  0  0
   18.8485   -0.2586   -9.6590 C   0  0  0  0  0  0  0  0  0  0  0  0
   21.0805   -1.2150   -9.1800 C   0  0  0  0  0  0  0  0  0  0  0  0
   21.7419   -2.2039  -10.1104 C   0  0  1  0  0  0  0  0  0  0  0  0
   20.8777   -2.8142  -10.9797 O   0  0  0  0  0  0  0  0  0  0  0  0
   22.7184   -1.3765  -10.9606 C   0  0  2  0  0  0  0  0  0  0  0  0
   23.4828   -0.5894  -10.0931 O   0  0  0  0  0  0  0  0  0  0  0  0
   24.8357   -0.6689   -9.8957 C   0  0  0  0  0  0  0  0  0  0  0  0
   25.5929   -1.4299  -10.7804 C   0  0  0  0  0  0  0  0  0  0  0  0
   26.9389   -1.5497  -10.6406 C   0  0  0  0  0  0  0  0  0  0  0  0
   27.6507   -2.3007  -11.5217 F   0  0  0  0  0  0  0  0  0  0  0  0
   27.5681   -0.9091   -9.6077 C   0  0  0  0  0  0  0  0  0  0  0  0
   26.8758   -0.1487   -8.7092 C   0  0  0  0  0  0  0  0  0  0  0  0
   27.5085    0.5356   -7.6149 C   0  0  0  0  0  0  0  0  0  0  0  0
   28.0201    1.0995   -6.7324 N   0  0  0  0  0  0  0  0  0  0  0  0
   25.4928   -0.0446   -8.8793 C   0  0  0  0  0  0  0  0  0  0  0  0
  2  1  1  6
  3  2  1  6
  3  4  1  0
  4  5  1  6
  4  6  1  0
  6  7  1  6
  7  8  1  6
  7  9  1  0
  9 10  1  1
 10 11  1  0
 11 12  2  0
 12 13  1  0
 13 14  1  0
 13 15  2  0
 15 16  1  0
 16 17  1  0
 17 18  3  0
 16 19  2  0
  9  2  1  0
 19 11  1  0
M  END
$$$$
