_rank5
     RDKit          3D

 19 20  0  0  0  0  0  0  0  0999 V2000
   20.9425    1.6525  -10.6649 C   0  0  0  0  0  0  0  0  0  0  0  0
   21.3784    0.2930  -10.1565 C   0  0  1  0  0  0  0  0  0  0  0  0
   20.1671   -0.5191   -9.8798 C   0  0  0  0  0  0  0  0  0  0  0  0
   20.3484   -1.9930   -9.9632 C   0  0  1  0  0  0  0  0  0  0  0  0
   18.9545   -2.6233  -10.0432 C   0  0  0  0  0  0  0  0  0  0  0  0
   21.1550   -2.4360  -11.1607 C   0  0  0  0  0  0  0  0  0  0  0  0
   21.4980   -1.2711  -12.0587 C   0  0  1  0  0  0  0  0  0  0  0  0
   20.4075   -0.5790  -12.5135 O   0  0  0  0  0  0  0  0  0  0  0  0
   22.3065   -0.3022  -11.1821 C   0  0  2  0  0  0  0  0  0  0  0  0
   23.3136   -1.0361  -10.5469 O   0  0  0  0  0  0  0  0  0  0  0  0
   24.6504   -0.7388  -10.5237 C   0  0  0  0  0  0  0  0  0  0  0  0
   25.2382   -0.2303  -11.6774 C   0  0  0  0  0  0  0  0  0  0  0  0
   26.5590    0.0848  -11.7207 C   0  0  0  0  0  0  0  0  0  0  0  0
   27.1037    0.5798  -12.8632 F   0  0  0  0  0  0  0  0  0  0  0  0
   27.3322   -0.1005  -10.6067 C   0  0  0  0  0  0  0  0  0  0  0  0
   26.8091   -0.5963   -9.4468 C   0  0  0  0  0  0  0  0  0  0  0  0
   27.5956   -0.8018   -8.2613 C   0  0  0  0  0  0  0  0  0  0  0  0
   28.2362   -0.9584   -7.3003 N   0  0  0  0  0  0  0  0  0  0  0  0
   25.4477   -0.9110   -9.4333 C   0  0  0  0  0  0  0  0  0  0  0  0
  2  1  1  6
  3  2  1  6
  3  4  1  0
  4  5  1  6
  4  6  1  0
  6  7  1  6
  7  8  1  1
  7  9  1  0
  9 10  1  1
 10 11  1  0
 11 12  2  0
 12 13  1  0
 13 14  1  0
 13 15  2  0
 15 16  1  0
 16 17  1  0
 17 18  3  0
 16 19  2  0
  9  2  1  0
 19 11  1  0
M  END
$$$$
