_rank4
     RDKit          3D

 19 20  0  0  0  0  0  0  0  0999 V2000
   26.0065   -2.5850   -9.1580 C   0  0  0  0  0  0  0  0  0  0  0  0
   25.6329   -1.1449   -9.4470 C   0  0  1  0  0  0  0  0  0  0  0  0
   26.8537   -0.3079   -9.3347 C   0  0  0  0  0  0  0  0  0  0  0  0
   26.8482    0.9474  -10.1322 C   0  0  1  0  0  0  0  0  0  0  0  0
   28.2925    1.4527  -10.2032 C   0  0  0  0  0  0  0  0  0  0  0  0
   26.3228    0.7688  -11.5368 C   0  0  0  0  0  0  0  0  0  0  0  0
   26.0258   -0.6813  -11.8366 C   0  0  1  0  0  0  0  0  0  0  0  0
   27.1006   -1.5144  -11.6759 O   0  0  0  0  0  0  0  0  0  0  0  0
   24.9739   -1.1067  -10.8004 C   0  0  2  0  0  0  0  0  0  0  0  0
   23.9525   -0.1513  -10.8081 O   0  0  0  0  0  0  0  0  0  0  0  0
   22.6063   -0.3938  -10.7396 C   0  0  0  0  0  0  0  0  0  0  0  0
   22.0442   -1.2837  -11.6492 C   0  0  0  0  0  0  0  0  0  0  0  0
   20.7158   -1.5679  -11.6350 C   0  0  0  0  0  0  0  0  0  0  0  0
   20.1969   -2.4418  -12.5372 F   0  0  0  0  0  0  0  0  0  0  0  0
   19.9088   -0.9675  -10.7068 C   0  0  0  0  0  0  0  0  0  0  0  0
   20.4056   -0.0860   -9.7897 C   0  0  0  0  0  0  0  0  0  0  0  0
   19.5834    0.5599   -8.8033 C   0  0  0  0  0  0  0  0  0  0  0  0
   18.9091    1.0844   -8.0105 N   0  0  0  0  0  0  0  0  0  0  0  0
   21.7756    0.1860   -9.8295 C   0  0  0  0  0  0  0  0  0  0  0  0
  2  1  1  6
  3  2  1  6
  3  4  1  0
  4  5  1  6
  4  6  1  0
  6  7  1  6
  7  8  1  1
  7  9  1  0
  9 10  1  1
 10 11  1  0
 11 12  2  0
 12 13  1  0
 13 14  1  0
 13 15  2  0
 15 16  1  0
 16 17  1  0
 17 18  3  0
 16 19  2  0
  9  2  1  0
 19 11  1  0
M  END
$$$$
