_rank12
     RDKit          3D

 19 20  0  0  0  0  0  0  0  0999 V2000
   21.9760   -0.3888  -13.3442 C   0  0  0  0  0  0  0  0  0  0  0  0
   22.0296   -0.0290  -11.8729 C   0  0  1  0  0  0  0  0  0  0  0  0
   20.6625    0.3372  -11.4255 C   0  0  0  0  0  0  0  0  0  0  0  0
   20.3835    0.1339   -9.9788 C   0  0  1  0  0  0  0  0  0  0  0  0
   18.8637    0.1810   -9.7932 C   0  0  0  0  0  0  0  0  0  0  0  0
   20.9014   -1.1793   -9.4420 C   0  0  0  0  0  0  0  0  0  0  0  0
   21.4912   -2.0321  -10.5401 C   0  0  1  0  0  0  0  0  0  0  0  0
   20.6210   -2.3044  -11.5616 O   0  0  0  0  0  0  0  0  0  0  0  0
   22.6335   -1.1968  -11.1388 C   0  0  2  0  0  0  0  0  0  0  0  0
   23.4292   -0.7386  -10.0838 O   0  0  0  0  0  0  0  0  0  0  0  0
   24.7889   -0.5742  -10.0975 C   0  0  0  0  0  0  0  0  0  0  0  0
   25.4699   -0.7696  -11.2947 C   0  0  0  0  0  0  0  0  0  0  0  0
   26.8180   -0.6224  -11.3759 C   0  0  0  0  0  0  0  0  0  0  0  0
   27.4543   -0.8202  -12.5604 F   0  0  0  0  0  0  0  0  0  0  0  0
   27.5258   -0.2742  -10.2575 C   0  0  0  0  0  0  0  0  0  0  0  0
   26.9103   -0.0697   -9.0557 C   0  0  0  0  0  0  0  0  0  0  0  0
   27.6265    0.2965   -7.8645 C   0  0  0  0  0  0  0  0  0  0  0  0
   28.1997    0.5894   -6.8928 N   0  0  0  0  0  0  0  0  0  0  0  0
   25.5230   -0.2286   -9.0038 C   0  0  0  0  0  0  0  0  0  0  0  0
  2  1  1  6
  3  2  1  6
  3  4  1  0
  4  5  1  6
  4  6  1  0
  6  7  1  6
  7  8  1  6
  7  9  1  0
  9 10  1  1
 10 11  1  0
 11 12  2  0
 12 13  1  0
 13 14  1  0
 13 15  2  0
 15 16  1  0
 16 17  1  0
 17 18  3  0
 16 19  2  0
  9  2  1  0
 19 11  1  0
M  END
$$$$
