_rank6
     RDKit          3D

 19 20  0  0  0  0  0  0  0  0999 V2000
   20.5981    2.0094  -10.7641 C   0  0  0  0  0  0  0  0  0  0  0  0
   21.1129    0.7098  -10.1784 C   0  0  1  0  0  0  0  0  0  0  0  0
   20.0237   -0.2973  -10.2320 C   0  0  0  0  0  0  0  0  0  0  0  0
   20.4632   -1.7172  -10.2851 C   0  0  1  0  0  0  0  0  0  0  0  0
   19.2591   -2.5542  -10.7279 C   0  0  0  0  0  0  0  0  0  0  0  0
   21.6065   -1.9608  -11.2413 C   0  0  0  0  0  0  0  0  0  0  0  0
   21.9646   -0.7088  -12.0063 C   0  0  1  0  0  0  0  0  0  0  0  0
   20.9235   -0.1736  -12.7166 O   0  0  0  0  0  0  0  0  0  0  0  0
   22.3543    0.3259  -10.9393 C   0  0  2  0  0  0  0  0  0  0  0  0
   23.2777   -0.2736  -10.0766 O   0  0  0  0  0  0  0  0  0  0  0  0
   24.6426   -0.2226  -10.1774 C   0  0  0  0  0  0  0  0  0  0  0  0
   25.2050    0.2070  -11.3750 C   0  0  0  0  0  0  0  0  0  0  0  0
   26.5515    0.2805  -11.5401 C   0  0  0  0  0  0  0  0  0  0  0  0
   27.0702    0.7043  -12.7226 F   0  0  0  0  0  0  0  0  0  0  0  0
   27.3767   -0.0750  -10.5078 C   0  0  0  0  0  0  0  0  0  0  0  0
   26.8806   -0.5039   -9.3099 C   0  0  0  0  0  0  0  0  0  0  0  0
   27.7218   -0.8839   -8.2080 C   0  0  0  0  0  0  0  0  0  0  0  0
   28.4028   -1.1824   -7.3106 N   0  0  0  0  0  0  0  0  0  0  0  0
   25.4917   -0.5688   -9.1706 C   0  0  0  0  0  0  0  0  0  0  0  0
  2  1  1  6
  3  2  1  6
  3  4  1  0
  4  5  1  6
  4  6  1  0
  6  7  1  6
  7  8  1  1
  7  9  1  0
  9 10  1  1
 10 11  1  0
 11 12  2  0
 12 13  1  0
 13 14  1  0
 13 15  2  0
 15 16  1  0
 16 17  1  0
 17 18  3  0
 16 19  2  0
  9  2  1  0
 19 11  1  0
M  END
$$$$
