_rank3
     RDKit          3D

 19 20  0  0  0  0  0  0  0  0999 V2000
   25.3766   -2.2123  -12.4879 C   0  0  0  0  0  0  0  0  0  0  0  0
   25.1409   -1.5741  -11.1337 C   0  0  1  0  0  0  0  0  0  0  0  0
   26.4568   -1.2487  -10.5288 C   0  0  0  0  0  0  0  0  0  0  0  0
   26.4552   -0.1287   -9.5503 C   0  0  1  0  0  0  0  0  0  0  0  0
   27.9099    0.3066   -9.3483 C   0  0  0  0  0  0  0  0  0  0  0  0
   25.6453    1.0646   -9.9987 C   0  0  0  0  0  0  0  0  0  0  0  0
   25.1121    0.8770  -11.3992 C   0  0  1  0  0  0  0  0  0  0  0  0
   26.0818    0.6448  -12.3376 O   0  0  0  0  0  0  0  0  0  0  0  0
   24.2389   -0.3860  -11.3393 C   0  0  2  0  0  0  0  0  0  0  0  0
   23.3668   -0.2543  -10.2538 O   0  0  0  0  0  0  0  0  0  0  0  0
   22.0051   -0.3989  -10.2775 C   0  0  0  0  0  0  0  0  0  0  0  0
   21.4695   -1.5601  -10.8252 C   0  0  0  0  0  0  0  0  0  0  0  0
   20.1276   -1.7654  -10.8792 C   0  0  0  0  0  0  0  0  0  0  0  0
   19.6354   -2.9106  -11.4206 F   0  0  0  0  0  0  0  0  0  0  0  0
   19.2802   -0.8112  -10.3848 C   0  0  0  0  0  0  0  0  0  0  0  0
   19.7495    0.3478   -9.8358 C   0  0  0  0  0  0  0  0  0  0  0  0
   18.8847    1.3678   -9.3087 C   0  0  0  0  0  0  0  0  0  0  0  0
   18.1810    2.1886   -8.8734 N   0  0  0  0  0  0  0  0  0  0  0  0
   21.1343    0.5301   -9.7945 C   0  0  0  0  0  0  0  0  0  0  0  0
  2  1  1  6
  3  2  1  6
  3  4  1  0
  4  5  1  6
  4  6  1  0
  6  7  1  6
  7  8  1  6
  7  9  1  0
  9 10  1  1
 10 11  1  0
 11 12  2  0
 12 13  1  0
 13 14  1  0
 13 15  2  0
 15 16  1  0
 16 17  1  0
 17 18  3  0
 16 19  2  0
  9  2  1  0
 19 11  1  0
M  END
$$$$
