_rank17
     RDKit          3D

 19 20  0  0  0  0  0  0  0  0999 V2000
   23.0413   -0.8061  -13.0945 C   0  0  0  0  0  0  0  0  0  0  0  0
   22.7746   -0.2695  -11.7024 C   0  0  1  0  0  0  0  0  0  0  0  0
   21.3542    0.1541  -11.6230 C   0  0  0  0  0  0  0  0  0  0  0  0
   20.7513    0.1303  -10.2635 C   0  0  1  0  0  0  0  0  0  0  0  0
   19.2309    0.2059  -10.4342 C   0  0  0  0  0  0  0  0  0  0  0  0
   21.0936   -1.1097   -9.4722 C   0  0  0  0  0  0  0  0  0  0  0  0
   21.8875   -2.0927  -10.2994 C   0  0  1  0  0  0  0  0  0  0  0  0
   21.2607   -2.4841  -11.4521 O   0  0  0  0  0  0  0  0  0  0  0  0
   23.1609   -1.3414  -10.7179 C   0  0  2  0  0  0  0  0  0  0  0  0
   23.7136   -0.7611   -9.5716 O   0  0  0  0  0  0  0  0  0  0  0  0
   25.0307   -0.7867   -9.1968 C   0  0  0  0  0  0  0  0  0  0  0  0
   25.5558   -1.9730   -8.6947 C   0  0  0  0  0  0  0  0  0  0  0  0
   26.8541   -2.0651   -8.3051 C   0  0  0  0  0  0  0  0  0  0  0  0
   27.3373   -3.2385   -7.8187 F   0  0  0  0  0  0  0  0  0  0  0  0
   27.6670   -0.9688   -8.4072 C   0  0  0  0  0  0  0  0  0  0  0  0
   27.2059    0.2215   -8.8926 C   0  0  0  0  0  0  0  0  0  0  0  0
   28.0352    1.3895   -9.0116 C   0  0  0  0  0  0  0  0  0  0  0  0
   28.7159    2.3305   -9.1097 N   0  0  0  0  0  0  0  0  0  0  0  0
   25.8663    0.2850   -9.2851 C   0  0  0  0  0  0  0  0  0  0  0  0
  2  1  1  6
  3  2  1  6
  3  4  1  0
  4  5  1  6
  4  6  1  0
  6  7  1  6
  7  8  1  6
  7  9  1  0
  9 10  1  1
 10 11  1  0
 11 12  2  0
 12 13  1  0
 13 14  1  0
 13 15  2  0
 15 16  1  0
 16 17  1  0
 17 18  3  0
 16 19  2  0
  9  2  1  0
 19 11  1  0
M  END
$$$$
