_rank1
     RDKit          3D

 19 20  0  0  0  0  0  0  0  0999 V2000
   25.7896    1.4229  -12.2654 C   0  0  0  0  0  0  0  0  0  0  0  0
   25.5808    0.1261  -11.5094 C   0  0  1  0  0  0  0  0  0  0  0  0
   26.8752   -0.2858  -10.9106 C   0  0  0  0  0  0  0  0  0  0  0  0
   26.7790   -1.1334   -9.6922 C   0  0  1  0  0  0  0  0  0  0  0  0
   28.1524   -1.1198   -9.0139 C   0  0  0  0  0  0  0  0  0  0  0  0
   25.7409   -0.6565   -8.7045 C   0  0  0  0  0  0  0  0  0  0  0  0
   25.1151    0.6456   -9.1445 C   0  0  1  0  0  0  0  0  0  0  0  0
   26.0155    1.6591   -9.3369 O   0  0  0  0  0  0  0  0  0  0  0  0
   24.4765    0.3520  -10.5110 C   0  0  2  0  0  0  0  0  0  0  0  0
   23.7027   -0.8061  -10.3836 O   0  0  0  0  0  0  0  0  0  0  0  0
   22.3480   -0.9069  -10.5577 C   0  0  0  0  0  0  0  0  0  0  0  0
   21.8405   -2.0434  -11.1789 C   0  0  0  0  0  0  0  0  0  0  0  0
   20.5069   -2.2051  -11.3819 C   0  0  0  0  0  0  0  0  0  0  0  0
   20.0422   -3.3271  -11.9919 F   0  0  0  0  0  0  0  0  0  0  0  0
   19.6399   -1.2305  -10.9675 C   0  0  0  0  0  0  0  0  0  0  0  0
   20.0814   -0.0941  -10.3523 C   0  0  0  0  0  0  0  0  0  0  0  0
   19.1955    0.9463   -9.9064 C   0  0  0  0  0  0  0  0  0  0  0  0
   18.4853    1.7953   -9.5412 N   0  0  0  0  0  0  0  0  0  0  0  0
   21.4583    0.0433  -10.1577 C   0  0  0  0  0  0  0  0  0  0  0  0
  2  1  1  1
  3  2  1  6
  3  4  1  0
  4  5  1  1
  4  6  1  0
  6  7  1  6
  7  8  1  6
  7  9  1  0
  9 10  1  1
 10 11  1  0
 11 12  2  0
 12 13  1  0
 13 14  1  0
 13 15  2  0
 15 16  1  0
 16 17  1  0
 17 18  3  0
 16 19  2  0
  9  2  1  0
 19 11  1  0
M  END
$$$$
