_rank2
     RDKit          3D

 19 20  0  0  0  0  0  0  0  0999 V2000
   25.2526    2.5456  -10.6501 C   0  0  0  0  0  0  0  0  0  0  0  0
   25.2351    1.0358  -10.7801 C   0  0  1  0  0  0  0  0  0  0  0  0
   26.6275    0.5624  -10.9818 C   0  0  0  0  0  0  0  0  0  0  0  0
   26.9035   -0.8303  -10.5388 C   0  0  1  0  0  0  0  0  0  0  0  0
   28.4244   -0.9931  -10.4565 C   0  0  0  0  0  0  0  0  0  0  0  0
   26.3020   -1.1677   -9.1952 C   0  0  0  0  0  0  0  0  0  0  0  0
   25.6471    0.0377   -8.5635 C   0  0  1  0  0  0  0  0  0  0  0  0
   26.4887    1.1048   -8.3963 O   0  0  0  0  0  0  0  0  0  0  0  0
   24.5593    0.4794   -9.5549 C   0  0  2  0  0  0  0  0  0  0  0  0
   23.8049   -0.6480   -9.8953 O   0  0  0  0  0  0  0  0  0  0  0  0
   22.4636   -0.6809  -10.1705 C   0  0  0  0  0  0  0  0  0  0  0  0
   21.6530    0.3212   -9.6473 C   0  0  0  0  0  0  0  0  0  0  0  0
   20.3152    0.3464   -9.8826 C   0  0  0  0  0  0  0  0  0  0  0  0
   19.5501    1.3391   -9.3571 F   0  0  0  0  0  0  0  0  0  0  0  0
   19.7482   -0.6340  -10.6510 C   0  0  0  0  0  0  0  0  0  0  0  0
   20.4949   -1.6422  -11.1905 C   0  0  0  0  0  0  0  0  0  0  0  0
   19.9281   -2.6852  -12.0011 C   0  0  0  0  0  0  0  0  0  0  0  0
   19.4766   -3.5302  -12.6648 N   0  0  0  0  0  0  0  0  0  0  0  0
   21.8678   -1.6410  -10.9307 C   0  0  0  0  0  0  0  0  0  0  0  0
  2  1  1  1
  3  2  1  6
  3  4  1  0
  4  5  1  1
  4  6  1  0
  6  7  1  6
  7  8  1  6
  7  9  1  0
  9 10  1  6
 10 11  1  0
 11 12  2  0
 12 13  1  0
 13 14  1  0
 13 15  2  0
 15 16  1  0
 16 17  1  0
 17 18  3  0
 16 19  2  0
  9  2  1  0
 19 11  1  0
M  END
$$$$
