_rank8
     RDKit          3D

 19 20  0  0  0  0  0  0  0  0999 V2000
   21.1980    1.7290  -11.7193 C   0  0  0  0  0  0  0  0  0  0  0  0
   21.4999    0.5730  -10.7869 C   0  0  1  0  0  0  0  0  0  0  0  0
   20.2163   -0.0394  -10.3618 C   0  0  0  0  0  0  0  0  0  0  0  0
   20.2855   -1.4736   -9.9740 C   0  0  1  0  0  0  0  0  0  0  0  0
   18.8523   -2.0142   -9.9565 C   0  0  0  0  0  0  0  0  0  0  0  0
   21.1142   -2.3150  -10.9154 C   0  0  0  0  0  0  0  0  0  0  0  0
   21.5921   -1.5111  -12.1012 C   0  0  1  0  0  0  0  0  0  0  0  0
   20.5836   -0.9327  -12.8245 O   0  0  0  0  0  0  0  0  0  0  0  0
   22.4290   -0.3662  -11.5095 C   0  0  2  0  0  0  0  0  0  0  0  0
   23.3422   -0.9230  -10.6083 O   0  0  0  0  0  0  0  0  0  0  0  0
   24.6834   -0.6555  -10.5340 C   0  0  0  0  0  0  0  0  0  0  0  0
   25.4085   -0.5602  -11.7173 C   0  0  0  0  0  0  0  0  0  0  0  0
   26.7414   -0.2972  -11.7131 C   0  0  0  0  0  0  0  0  0  0  0  0
   27.4219   -0.2104  -12.8862 F   0  0  0  0  0  0  0  0  0  0  0  0
   27.3891   -0.1214  -10.5203 C   0  0  0  0  0  0  0  0  0  0  0  0
   26.7283   -0.2036   -9.3280 C   0  0  0  0  0  0  0  0  0  0  0  0
   27.3811   -0.0238   -8.0601 C   0  0  0  0  0  0  0  0  0  0  0  0
   27.9126    0.1318   -7.0346 N   0  0  0  0  0  0  0  0  0  0  0  0
   25.3581   -0.4753   -9.3649 C   0  0  0  0  0  0  0  0  0  0  0  0
  2  1  1  6
  3  2  1  6
  3  4  1  0
  4  5  1  6
  4  6  1  0
  6  7  1  6
  7  8  1  1
  7  9  1  0
  9 10  1  1
 10 11  1  0
 11 12  2  0
 12 13  1  0
 13 14  1  0
 13 15  2  0
 15 16  1  0
 16 17  1  0
 17 18  3  0
 16 19  2  0
  9  2  1  0
 19 11  1  0
M  END
$$$$
