_rank19
     RDKit          3D

 19 20  0  0  0  0  0  0  0  0999 V2000
   21.6532   -1.2871   -7.9765 C   0  0  0  0  0  0  0  0  0  0  0  0
   21.9390   -1.4555   -9.4553 C   0  0  1  0  0  0  0  0  0  0  0  0
   20.6623   -1.7496  -10.1531 C   0  0  0  0  0  0  0  0  0  0  0  0
   20.6092   -1.3601  -11.5875 C   0  0  1  0  0  0  0  0  0  0  0  0
   19.1373   -1.3701  -12.0118 C   0  0  0  0  0  0  0  0  0  0  0  0
   21.1888    0.0067  -11.8646 C   0  0  0  0  0  0  0  0  0  0  0  0
   21.5908    0.7066  -10.5880 C   0  0  1  0  0  0  0  0  0  0  0  0
   20.5693    0.8529   -9.6880 O   0  0  0  0  0  0  0  0  0  0  0  0
   22.6359   -0.2083   -9.9309 C   0  0  2  0  0  0  0  0  0  0  0  0
   23.5912   -0.5340  -10.8991 O   0  0  0  0  0  0  0  0  0  0  0  0
   24.9500   -0.4109  -10.7800 C   0  0  0  0  0  0  0  0  0  0  0  0
   25.6943   -0.1290  -11.9209 C   0  0  0  0  0  0  0  0  0  0  0  0
   27.0453    0.0056  -11.8711 C   0  0  0  0  0  0  0  0  0  0  0  0
   27.7442    0.2812  -13.0036 F   0  0  0  0  0  0  0  0  0  0  0  0
   27.6925   -0.1386  -10.6738 C   0  0  0  0  0  0  0  0  0  0  0  0
   27.0134   -0.4156   -9.5219 C   0  0  0  0  0  0  0  0  0  0  0  0
   27.6651   -0.5726   -8.2504 C   0  0  0  0  0  0  0  0  0  0  0  0
   28.1844   -0.7019   -7.2150 N   0  0  0  0  0  0  0  0  0  0  0  0
   25.6248   -0.5482   -9.6052 C   0  0  0  0  0  0  0  0  0  0  0  0
  2  1  1  1
  3  2  1  6
  3  4  1  0
  4  5  1  1
  4  6  1  0
  6  7  1  6
  7  8  1  1
  7  9  1  0
  9 10  1  6
 10 11  1  0
 11 12  2  0
 12 13  1  0
 13 14  1  0
 13 15  2  0
 15 16  1  0
 16 17  1  0
 17 18  3  0
 16 19  2  0
  9  2  1  0
 19 11  1  0
M  END
$$$$
