_rank15
     RDKit          3D

 19 20  0  0  0  0  0  0  0  0999 V2000
   21.5333    0.3200  -12.9927 C   0  0  0  0  0  0  0  0  0  0  0  0
   21.6557    0.0726  -11.5024 C   0  0  1  0  0  0  0  0  0  0  0  0
   20.2915   -0.0428  -10.9287 C   0  0  0  0  0  0  0  0  0  0  0  0
   20.1836   -0.8509   -9.6848 C   0  0  1  0  0  0  0  0  0  0  0  0
   18.7017   -1.1792   -9.4777 C   0  0  0  0  0  0  0  0  0  0  0  0
   20.9684   -2.1404   -9.7317 C   0  0  0  0  0  0  0  0  0  0  0  0
   21.5964   -2.3572  -11.0880 C   0  0  1  0  0  0  0  0  0  0  0  0
   20.6986   -2.3685  -12.1217 O   0  0  0  0  0  0  0  0  0  0  0  0
   22.5172   -1.1474  -11.3111 C   0  0  2  0  0  0  0  0  0  0  0  0
   23.3127   -0.9969  -10.1706 O   0  0  0  0  0  0  0  0  0  0  0  0
   24.6518   -0.7113  -10.1403 C   0  0  0  0  0  0  0  0  0  0  0  0
   25.2089   -0.0227  -11.2129 C   0  0  0  0  0  0  0  0  0  0  0  0
   26.5303    0.2915  -11.2448 C   0  0  0  0  0  0  0  0  0  0  0  0
   27.0445    0.9651  -12.3072 F   0  0  0  0  0  0  0  0  0  0  0  0
   27.3349   -0.0758  -10.2003 C   0  0  0  0  0  0  0  0  0  0  0  0
   26.8428   -0.7531   -9.1214 C   0  0  0  0  0  0  0  0  0  0  0  0
   27.6627   -1.1520   -8.0103 C   0  0  0  0  0  0  0  0  0  0  0  0
   28.3226   -1.4686   -7.1032 N   0  0  0  0  0  0  0  0  0  0  0  0
   25.4800   -1.0619   -9.1177 C   0  0  0  0  0  0  0  0  0  0  0  0
  2  1  1  6
  3  2  1  6
  3  4  1  0
  4  5  1  6
  4  6  1  0
  6  7  1  6
  7  8  1  6
  7  9  1  0
  9 10  1  1
 10 11  1  0
 11 12  2  0
 12 13  1  0
 13 14  1  0
 13 15  2  0
 15 16  1  0
 16 17  1  0
 17 18  3  0
 16 19  2  0
  9  2  1  0
 19 11  1  0
M  END
$$$$
